version 2
run Cenario1-0-20241207-16:54:07-17296
attr configname Cenario1
attr datetime 20241207-16:54:07
attr experiment Cenario1
attr inifile icarqoc.ini
attr iterationvars ""
attr iterationvarsf ""
attr measurement ""
attr network org.car2x.veins.modules.application.icarnew.IcarScenario
attr processid 17296
attr repetition 0
attr replication #0
attr resultdir results
attr runnumber 0
attr seedset 0
param *.manager.launchConfig "xmldoc(\"./cenario1.launchd.xml\")"
param *.playgroundSizeX 10500m
param *.playgroundSizeY 10500m
param *.playgroundSizeZ 50m
param *.node[*].applType "\"Icarqoc\""
param *.node[*].appl.maxSpeedRoute0 41.67
param *.node[*].appl.maxSpeedRoute1 41.67
param *.node[*].appl.integratedScenario false
param *.icarParameters.vehicleAmount 100
param *.icarParameters.simulationDataheaderLine true
param *.icarParameters.appTypeId 100
param *.icarParameters.deliveryDelay 5
param *.icarParameters.traceChangedMobility true
param *.icarParameters.timeToLive 2s
param *.icarParameters.loadPeriodApp 0
param *.icarParameters.perforMesurementPeriod 1
param *.icarParameters.mobilityPeriod 0
param *.icarParameters.observation "\"default\""
param *.icarParameters.lostMessageRate 0
param *.icarParameters.monitorPeriod 0.5
param **.debug false
param **.coreDebug false
param *.playgroundSizeX 6000m
param *.playgroundSizeY 6000m
param *.playgroundSizeZ 50m
param *.annotations.draw true
param *.obstacles.debug false
param *.obstacles.obstacles "xmldoc(\"config.xml\", \"//AnalogueModel[@type='SimpleObstacleShadowing']/obstacles\")"
param *.manager.updateInterval 0.1s
param *.manager.host "\"localhost\""
param *.manager.port 9999
param *.manager.autoShutdown true
param *.manager.launchConfig "xmldoc(\"simOppositeDirection.launchd.xml\")"
param *.connectionManager.sendDirect true
param *.connectionManager.maxInterfDist 2600m
param *.connectionManager.drawMaxIntfDist false
param *.**.nic.mac1609_4.useServiceChannel true
param *.**.nic.mac1609_4.txPower 5mW
param *.**.nic.mac1609_4.bitrate 6Mbps
param *.**.nic.phy80211p.minPowerLevel -89dBm
param *.**.nic.phy80211p.useNoiseFloor false
param *.**.nic.phy80211p.noiseFloor -86dBm
param *.**.nic.phy80211p.decider "xmldoc(\"simCrossing.config.xml\")"
param *.**.nic.phy80211p.analogueModels "xmldoc(\"simCrossing.config.xml\")"
param *.**.nic.phy80211p.usePropagationDelay true
param *.node[*].nic.phy80211p.antennaOffsetY "0 m"
param *.node[*].nic.phy80211p.antennaOffsetZ "1.895 m"
param *.**.nic.phy80211p.antenna "xml(\"<root><Antenna type=\\\"IsotropicAntenna\\\" id=\\\"default_isotropic\\\"></Antenna></root>\")"
param *.node[*].applType "\"TraCIDemo11p\""
param *.node[*].appl.headerLength "80 bit"
param *.node[*].appl.sendBeacons false
param *.node[*].appl.dataOnSch false
param *.node[*].appl.beaconInterval 1s
param *.node[*].veinsmobilityType.debug true
param *.node[*].veinsmobility.x 0
param *.node[*].veinsmobility.y 0
param *.node[*].veinsmobility.z 1.895
param *.node[*0].veinsmobility.accidentCount 1
param *.node[*0].veinsmobility.accidentStart 75s
param *.node[*0].veinsmobility.accidentDuration 50s

vector 0 IcarScenario.node[0].veinsmobility posx ETV
vector 1 IcarScenario.node[0].veinsmobility posy ETV
vector 2 IcarScenario.node[0].veinsmobility speed ETV
vector 3 IcarScenario.node[0].veinsmobility acceleration ETV
vector 4 IcarScenario.node[0].veinsmobility co2emission ETV
vector 5 IcarScenario.node[1].veinsmobility posx ETV
vector 6 IcarScenario.node[1].veinsmobility posy ETV
vector 7 IcarScenario.node[1].veinsmobility speed ETV
vector 8 IcarScenario.node[1].veinsmobility acceleration ETV
vector 9 IcarScenario.node[1].veinsmobility co2emission ETV
vector 10 IcarScenario.node[2].veinsmobility posx ETV
vector 11 IcarScenario.node[2].veinsmobility posy ETV
vector 12 IcarScenario.node[2].veinsmobility speed ETV
vector 13 IcarScenario.node[2].veinsmobility acceleration ETV
vector 14 IcarScenario.node[2].veinsmobility co2emission ETV
0	2	0.1	30.835991636586
0	4	0.2	30.835991636586
0	7	0.3	30.835991636586
0	10	0.4	30.835991636586
0	13	0.5	30.835991636586
0	17	0.6	30.835991636586
0	20	0.7	30.835991636586
0	23	0.8	30.835991636586
0	26	0.9	30.835991636586
0	29	1	30.835991636586
0	32	1.1	31.776382153564
0	35	1.2	31.776382153564
0	38	1.3	31.776382153564
0	41	1.4	31.776382153564
0	44	1.5	31.776382153564
0	47	1.6	31.776382153564
0	50	1.7	31.776382153564
0	53	1.8	31.776382153564
0	56	1.9	31.776382153564
0	59	2	31.776382153564
0	62	2.1	32.716772670541
0	65	2.2	32.716772670541
0	68	2.3	32.716772670541
0	71	2.4	32.716772670541
0	74	2.5	32.716772670541
0	77	2.6	32.716772670541
0	80	2.7	32.716772670541
0	83	2.8	32.716772670541
0	86	2.9	32.716772670541
0	89	3	32.716772670541
0	92	3.1	33.657163187519
0	95	3.2	33.657163187519
0	98	3.3	33.657163187519
0	101	3.4	33.657163187519
0	104	3.5	33.657163187519
0	107	3.6	33.657163187519
0	110	3.7	33.657163187519
0	113	3.8	33.657163187519
0	116	3.9	33.657163187519
0	119	4	33.657163187519
0	122	4.1	34.597553704496
0	125	4.2	34.597553704496
0	128	4.3	34.597553704496
0	131	4.4	34.597553704496
0	134	4.5	34.597553704496
0	137	4.6	34.597553704496
0	140	4.7	34.597553704496
0	143	4.8	34.597553704496
0	146	4.9	34.597553704496
0	149	5	34.597553704496
0	152	5.1	35.537944221474
0	155	5.2	35.537944221474
0	158	5.3	35.537944221474
0	161	5.4	35.537944221474
0	164	5.5	35.537944221474
0	167	5.6	35.537944221474
0	170	5.7	35.537944221474
0	173	5.8	35.537944221474
0	176	5.9	35.537944221474
0	179	6	35.537944221474
0	182	6.1	36.478334738452
0	185	6.2	36.478334738452
0	188	6.3	36.478334738452
0	191	6.4	36.478334738452
0	194	6.5	36.478334738452
0	197	6.6	36.478334738452
0	200	6.7	36.478334738452
0	203	6.8	36.478334738452
0	206	6.9	36.478334738452
0	209	7	36.478334738452
0	212	7.1	37.418725255429
0	215	7.2	37.418725255429
0	218	7.3	37.418725255429
0	221	7.4	37.418725255429
0	224	7.5	37.418725255429
0	227	7.6	37.418725255429
0	230	7.7	37.418725255429
0	233	7.8	37.418725255429
0	236	7.9	37.418725255429
0	239	8	37.418725255429
0	242	8.1	38.359115772407
0	245	8.2	38.359115772407
0	248	8.3	38.359115772407
0	251	8.4	38.359115772407
0	254	8.5	38.359115772407
0	257	8.6	38.359115772407
0	260	8.7	38.359115772407
0	263	8.8	38.359115772407
0	266	8.9	38.359115772407
0	269	9	38.359115772407
0	272	9.1	39.299506289385
0	275	9.2	39.299506289385
0	278	9.3	39.299506289385
0	281	9.4	39.299506289385
0	284	9.5	39.299506289385
0	287	9.6	39.299506289385
0	290	9.7	39.299506289385
0	293	9.8	39.299506289385
0	296	9.9	39.299506289385
0	299	10	39.299506289385
0	302	10.1	40.239896806362
0	305	10.2	40.239896806362
0	308	10.3	40.239896806362
0	311	10.4	40.239896806362
0	314	10.5	40.239896806362
0	317	10.6	40.239896806362
0	320	10.7	40.239896806362
0	323	10.8	40.239896806362
0	326	10.9	40.239896806362
0	329	11	40.239896806362
0	332	11.1	41.18028732334
0	335	11.2	41.18028732334
0	338	11.3	41.18028732334
0	341	11.4	41.18028732334
0	344	11.5	41.18028732334
0	347	11.6	41.18028732334
0	350	11.7	41.18028732334
0	353	11.8	41.18028732334
0	356	11.9	41.18028732334
0	359	12	41.18028732334
0	362	12.1	42.120677840317
0	365	12.2	42.120677840317
0	368	12.3	42.120677840317
0	371	12.4	42.120677840317
0	374	12.5	42.120677840317
0	377	12.6	42.120677840317
0	380	12.7	42.120677840317
0	383	12.8	42.120677840317
0	386	12.9	42.120677840317
0	389	13	42.120677840317
0	392	13.1	43.061068357295
0	395	13.2	43.061068357295
0	398	13.3	43.061068357295
0	401	13.4	43.061068357295
0	404	13.5	43.061068357295
0	407	13.6	43.061068357295
0	410	13.7	43.061068357295
0	413	13.8	43.061068357295
0	416	13.9	43.061068357295
0	419	14	43.061068357295
0	422	14.1	44.001458874273
0	425	14.2	44.001458874273
0	428	14.3	44.001458874273
0	431	14.4	44.001458874273
0	434	14.5	44.001458874273
0	437	14.6	44.001458874273
0	440	14.7	44.001458874273
0	443	14.8	44.001458874273
0	446	14.9	44.001458874273
0	449	15	44.001458874273
0	452	15.1	44.94184939125
0	455	15.2	44.94184939125
0	458	15.3	44.94184939125
0	461	15.4	44.94184939125
0	464	15.5	44.94184939125
0	467	15.6	44.94184939125
0	470	15.7	44.94184939125
0	473	15.8	44.94184939125
0	476	15.9	44.94184939125
0	479	16	44.94184939125
0	482	16.1	45.882239908228
0	485	16.2	45.882239908228
0	488	16.3	45.882239908228
0	491	16.4	45.882239908228
0	494	16.5	45.882239908228
0	497	16.6	45.882239908228
0	500	16.7	45.882239908228
0	503	16.8	45.882239908228
0	506	16.9	45.882239908228
0	509	17	45.882239908228
0	512	17.1	46.822630425206
0	515	17.2	46.822630425206
0	518	17.3	46.822630425206
0	521	17.4	46.822630425206
0	524	17.5	46.822630425206
0	527	17.6	46.822630425206
0	530	17.7	46.822630425206
0	533	17.8	46.822630425206
0	536	17.9	46.822630425206
0	539	18	46.822630425206
0	542	18.1	47.763020942183
0	545	18.2	47.763020942183
0	548	18.3	47.763020942183
0	551	18.4	47.763020942183
0	554	18.5	47.763020942183
0	557	18.6	47.763020942183
0	560	18.7	47.763020942183
0	563	18.8	47.763020942183
0	566	18.9	47.763020942183
0	569	19	47.763020942183
0	572	19.1	48.703411459161
0	575	19.2	48.703411459161
0	578	19.3	48.703411459161
0	581	19.4	48.703411459161
0	584	19.5	48.703411459161
0	587	19.6	48.703411459161
0	590	19.7	48.703411459161
0	593	19.8	48.703411459161
0	596	19.9	48.703411459161
0	599	20	48.703411459161
0	602	20.1	49.643801976138
0	605	20.2	49.643801976138
0	608	20.3	49.643801976138
0	611	20.4	49.643801976138
0	614	20.5	49.643801976138
0	617	20.6	49.643801976138
0	620	20.7	49.643801976138
0	623	20.8	49.643801976138
0	626	20.9	49.643801976138
0	629	21	49.643801976138
0	632	21.1	50.584192493116
0	635	21.2	50.584192493116
0	638	21.3	50.584192493116
0	641	21.4	50.584192493116
0	644	21.5	50.584192493116
0	647	21.6	50.584192493116
0	650	21.7	50.584192493116
0	653	21.8	50.584192493116
0	656	21.9	50.584192493116
0	659	22	50.584192493116
0	662	22.1	51.524583010094
0	665	22.2	51.524583010094
0	668	22.3	51.524583010094
0	671	22.4	51.524583010094
0	674	22.5	51.524583010094
0	677	22.6	51.524583010094
0	680	22.7	51.524583010094
0	683	22.8	51.524583010094
0	686	22.9	51.524583010094
0	689	23	51.524583010094
0	692	23.1	52.464973527071
0	695	23.2	52.464973527071
0	698	23.3	52.464973527071
0	701	23.4	52.464973527071
0	704	23.5	52.464973527071
0	707	23.6	52.464973527071
0	710	23.7	52.464973527071
0	713	23.8	52.464973527071
0	716	23.9	52.464973527071
0	719	24	52.464973527071
0	722	24.1	53.413292192033
0	725	24.2	53.413292192033
0	728	24.3	53.413292192033
0	731	24.4	53.413292192033
0	734	24.5	53.413292192033
0	737	24.6	53.413292192033
0	740	24.7	53.413292192033
0	743	24.8	53.413292192033
0	746	24.9	53.413292192033
0	749	25	53.413292192033
0	752	25.1	54.378924627693
0	755	25.2	54.378924627693
0	758	25.3	54.378924627693
0	761	25.4	54.378924627693
0	764	25.5	54.378924627693
0	767	25.6	54.378924627693
0	770	25.7	54.378924627693
0	773	25.8	54.378924627693
0	776	25.9	54.378924627693
0	779	26	54.378924627693
0	782	26.1	55.344557063354
0	785	26.2	55.344557063354
0	788	26.3	55.344557063354
0	791	26.4	55.344557063354
0	794	26.5	55.344557063354
0	797	26.6	55.344557063354
0	800	26.7	55.344557063354
0	803	26.8	55.344557063354
0	806	26.9	55.344557063354
0	809	27	55.344557063354
0	812	27.1	56.310189499014
0	815	27.2	56.310189499014
0	818	27.3	56.310189499014
0	821	27.4	56.310189499014
0	824	27.5	56.310189499014
0	827	27.6	56.310189499014
0	830	27.7	56.310189499014
0	833	27.8	56.310189499014
0	836	27.9	56.310189499014
0	839	28	56.310189499014
0	842	28.1	57.275821934674
0	845	28.2	57.275821934674
0	848	28.3	57.275821934674
0	851	28.4	57.275821934674
0	854	28.5	57.275821934674
0	857	28.6	57.275821934674
0	860	28.7	57.275821934674
0	863	28.8	57.275821934674
0	866	28.9	57.275821934674
0	869	29	57.275821934674
0	872	29.1	58.241454370334
0	875	29.2	58.241454370334
0	878	29.3	58.241454370334
0	881	29.4	58.241454370334
0	884	29.5	58.241454370334
0	887	29.6	58.241454370334
0	890	29.7	58.241454370334
0	893	29.8	58.241454370334
0	896	29.9	58.241454370334
0	899	30	58.241454370334
0	902	30.1	59.207086805994
0	905	30.2	59.207086805994
0	908	30.3	59.207086805994
0	911	30.4	59.207086805994
0	914	30.5	59.207086805994
0	917	30.6	59.207086805994
0	920	30.7	59.207086805994
0	923	30.8	59.207086805994
0	926	30.9	59.207086805994
0	929	31	59.207086805994
0	932	31.1	60.172719241654
0	935	31.2	60.172719241654
0	938	31.3	60.172719241654
0	941	31.4	60.172719241654
0	944	31.5	60.172719241654
0	947	31.6	60.172719241654
0	950	31.7	60.172719241654
0	953	31.8	60.172719241654
0	956	31.9	60.172719241654
0	959	32	60.172719241654
0	962	32.1	61.138351677315
0	965	32.2	61.138351677315
0	968	32.3	61.138351677315
0	971	32.4	61.138351677315
0	974	32.5	61.138351677315
0	977	32.6	61.138351677315
0	980	32.7	61.138351677315
0	983	32.8	61.138351677315
0	986	32.9	61.138351677315
0	989	33	61.138351677315
0	992	33.1	62.103984112975
0	995	33.2	62.103984112975
0	998	33.3	62.103984112975
0	1001	33.4	62.103984112975
0	1004	33.5	62.103984112975
0	1007	33.6	62.103984112975
0	1010	33.7	62.103984112975
0	1013	33.8	62.103984112975
0	1016	33.9	62.103984112975
0	1019	34	62.103984112975
0	1022	34.1	63.069616548635
0	1025	34.2	63.069616548635
0	1028	34.3	63.069616548635
0	1031	34.4	63.069616548635
0	1034	34.5	63.069616548635
0	1037	34.6	63.069616548635
0	1040	34.7	63.069616548635
0	1043	34.8	63.069616548635
0	1046	34.9	63.069616548635
0	1049	35	63.069616548635
0	1052	35.1	64.035248984295
0	1055	35.2	64.035248984295
0	1058	35.3	64.035248984295
0	1061	35.4	64.035248984295
0	1064	35.5	64.035248984295
0	1067	35.6	64.035248984295
0	1070	35.7	64.035248984295
0	1073	35.8	64.035248984295
0	1076	35.9	64.035248984295
0	1079	36	64.035248984295
0	1082	36.1	65.000881419955
0	1085	36.2	65.000881419955
0	1088	36.3	65.000881419955
0	1091	36.4	65.000881419955
0	1094	36.5	65.000881419955
0	1097	36.6	65.000881419955
0	1100	36.7	65.000881419955
0	1103	36.8	65.000881419955
0	1106	36.9	65.000881419955
0	1109	37	65.000881419955
0	1112	37.1	65.966513855615
0	1115	37.2	65.966513855615
0	1118	37.3	65.966513855615
0	1121	37.4	65.966513855615
0	1124	37.5	65.966513855615
0	1127	37.6	65.966513855615
0	1130	37.7	65.966513855615
0	1133	37.8	65.966513855615
0	1136	37.9	65.966513855615
0	1139	38	65.966513855615
0	1142	38.1	66.932146291275
0	1145	38.2	66.932146291275
0	1148	38.3	66.932146291275
0	1151	38.4	66.932146291275
0	1154	38.5	66.932146291275
0	1157	38.6	66.932146291275
0	1160	38.7	66.932146291275
0	1163	38.8	66.932146291275
0	1166	38.9	66.932146291275
0	1169	39	66.932146291275
0	1172	39.1	67.897778726936
0	1175	39.2	67.897778726936
0	1178	39.3	67.897778726936
0	1181	39.4	67.897778726936
0	1184	39.5	67.897778726936
0	1187	39.6	67.897778726936
0	1190	39.7	67.897778726936
0	1193	39.8	67.897778726936
0	1196	39.9	67.897778726936
0	1199	40	67.897778726936
0	1202	40.1	68.863411162596
0	1206	40.2	68.863411162596
0	1211	40.3	68.863411162596
0	1216	40.4	68.863411162596
0	1221	40.5	68.863411162596
0	1227	40.6	68.863411162596
0	1232	40.7	68.863411162596
0	1237	40.8	68.863411162596
0	1242	40.9	68.863411162596
0	1247	41	68.863411162596
0	1252	41.1	69.829043598256
0	1257	41.2	69.829043598256
0	1262	41.3	69.829043598256
0	1267	41.4	69.829043598256
0	1272	41.5	69.829043598256
0	1277	41.6	69.829043598256
0	1282	41.7	69.829043598256
0	1287	41.8	69.829043598256
0	1292	41.9	69.829043598256
0	1297	42	69.829043598256
0	1302	42.1	70.794676033916
0	1307	42.2	70.794676033916
0	1312	42.3	70.794676033916
0	1317	42.4	70.794676033916
0	1322	42.5	70.794676033916
0	1327	42.6	70.794676033916
0	1332	42.7	70.794676033916
0	1337	42.8	70.794676033916
0	1342	42.9	70.794676033916
0	1347	43	70.794676033916
0	1352	43.1	71.760308469576
0	1357	43.2	71.760308469576
0	1362	43.3	71.760308469576
0	1367	43.4	71.760308469576
0	1372	43.5	71.760308469576
0	1377	43.6	71.760308469576
0	1382	43.7	71.760308469576
0	1387	43.8	71.760308469576
0	1392	43.9	71.760308469576
0	1397	44	71.760308469576
0	1402	44.1	72.725940905236
0	1407	44.2	72.725940905236
0	1412	44.3	72.725940905236
0	1417	44.4	72.725940905236
0	1422	44.5	72.725940905236
0	1427	44.6	72.725940905236
0	1432	44.7	72.725940905236
0	1437	44.8	72.725940905236
0	1442	44.9	72.725940905236
0	1447	45	72.725940905236
0	1452	45.1	73.691573340897
0	1457	45.2	73.691573340897
0	1462	45.3	73.691573340897
0	1467	45.4	73.691573340897
0	1472	45.5	73.691573340897
0	1477	45.6	73.691573340897
0	1482	45.7	73.691573340897
0	1487	45.8	73.691573340897
0	1492	45.9	73.691573340897
0	1497	46	73.691573340897
0	1502	46.1	74.657205776557
0	1507	46.2	74.657205776557
0	1512	46.3	74.657205776557
0	1517	46.4	74.657205776557
0	1522	46.5	74.657205776557
0	1527	46.6	74.657205776557
0	1532	46.7	74.657205776557
0	1537	46.8	74.657205776557
0	1542	46.9	74.657205776557
0	1547	47	74.657205776557
0	1552	47.1	75.630148640933
0	1557	47.2	75.630148640933
0	1562	47.3	75.630148640933
0	1567	47.4	75.630148640933
0	1572	47.5	75.630148640933
0	1577	47.6	75.630148640933
0	1582	47.7	75.630148640933
0	1587	47.8	75.630148640933
0	1592	47.9	75.630148640933
0	1597	48	75.630148640933
0	1602	48.1	76.615787943318
0	1607	48.2	76.615787943318
0	1612	48.3	76.615787943318
0	1617	48.4	76.615787943318
0	1622	48.5	76.615787943318
0	1627	48.6	76.615787943318
0	1632	48.7	76.615787943318
0	1637	48.8	76.615787943318
0	1642	48.9	76.615787943318
0	1647	49	76.615787943318
0	1652	49.1	77.601427245702
0	1657	49.2	77.601427245702
0	1662	49.3	77.601427245702
0	1667	49.4	77.601427245702
0	1672	49.5	77.601427245702
0	1677	49.6	77.601427245702
0	1682	49.7	77.601427245702
0	1687	49.8	77.601427245702
0	1692	49.9	77.601427245702
0	1697	50	77.601427245702
0	1702	50.1	78.587066548087
0	1707	50.2	78.587066548087
0	1712	50.3	78.587066548087
0	1717	50.4	78.587066548087
0	1722	50.5	78.587066548087
0	1727	50.6	78.587066548087
0	1732	50.7	78.587066548087
0	1737	50.8	78.587066548087
0	1742	50.9	78.587066548087
0	1747	51	78.587066548087
0	1752	51.1	79.572705850471
0	1757	51.2	79.572705850471
0	1762	51.3	79.572705850471
0	1767	51.4	79.572705850471
0	1772	51.5	79.572705850471
0	1777	51.6	79.572705850471
0	1782	51.7	79.572705850471
0	1787	51.8	79.572705850471
0	1792	51.9	79.572705850471
0	1797	52	79.572705850471
0	1802	52.1	80.558345152856
0	1807	52.2	80.558345152856
0	1812	52.3	80.558345152856
0	1817	52.4	80.558345152856
0	1822	52.5	80.558345152856
0	1827	52.6	80.558345152856
0	1832	52.7	80.558345152856
0	1837	52.8	80.558345152856
0	1842	52.9	80.558345152856
0	1847	53	80.558345152856
0	1852	53.1	81.543984455241
0	1857	53.2	81.543984455241
0	1862	53.3	81.543984455241
0	1867	53.4	81.543984455241
0	1872	53.5	81.543984455241
0	1877	53.6	81.543984455241
0	1882	53.7	81.543984455241
0	1887	53.8	81.543984455241
0	1892	53.9	81.543984455241
0	1897	54	81.543984455241
0	1902	54.1	82.529623757625
0	1907	54.2	82.529623757625
0	1912	54.3	82.529623757625
0	1917	54.4	82.529623757625
0	1922	54.5	82.529623757625
0	1927	54.6	82.529623757625
0	1932	54.7	82.529623757625
0	1937	54.8	82.529623757625
0	1942	54.9	82.529623757625
0	1947	55	82.529623757625
0	1952	55.1	83.51526306001
0	1957	55.2	83.51526306001
0	1962	55.3	83.51526306001
0	1967	55.4	83.51526306001
0	1972	55.5	83.51526306001
0	1977	55.6	83.51526306001
0	1982	55.7	83.51526306001
0	1987	55.8	83.51526306001
0	1992	55.9	83.51526306001
0	1997	56	83.51526306001
0	2002	56.1	84.500902362394
0	2007	56.2	84.500902362394
0	2012	56.3	84.500902362394
0	2017	56.4	84.500902362394
0	2022	56.5	84.500902362394
0	2027	56.6	84.500902362394
0	2032	56.7	84.500902362394
0	2037	56.8	84.500902362394
0	2042	56.9	84.500902362394
0	2047	57	84.500902362394
0	2052	57.1	85.486541664779
0	2057	57.2	85.486541664779
0	2062	57.3	85.486541664779
0	2067	57.4	85.486541664779
0	2072	57.5	85.486541664779
0	2077	57.6	85.486541664779
0	2082	57.7	85.486541664779
0	2087	57.8	85.486541664779
0	2092	57.9	85.486541664779
0	2097	58	85.486541664779
0	2102	58.1	86.472180967163
0	2107	58.2	86.472180967163
0	2112	58.3	86.472180967163
0	2117	58.4	86.472180967163
0	2122	58.5	86.472180967163
0	2127	58.6	86.472180967163
0	2132	58.7	86.472180967163
0	2137	58.8	86.472180967163
0	2142	58.9	86.472180967163
0	2147	59	86.472180967163
0	2152	59.1	87.457820269548
0	2157	59.2	87.457820269548
0	2162	59.3	87.457820269548
0	2167	59.4	87.457820269548
0	2172	59.5	87.457820269548
0	2177	59.6	87.457820269548
0	2182	59.7	87.457820269548
0	2187	59.8	87.457820269548
0	2192	59.9	87.457820269548
0	2197	60	87.457820269548
0	2202	60.1	88.443459571932
0	2207	60.2	88.443459571932
0	2212	60.3	88.443459571932
0	2217	60.4	88.443459571932
0	2222	60.5	88.443459571932
0	2227	60.6	88.443459571932
0	2232	60.7	88.443459571932
0	2237	60.8	88.443459571932
0	2242	60.9	88.443459571932
0	2247	61	88.443459571932
0	2252	61.1	89.429098874317
0	2257	61.2	89.429098874317
0	2262	61.3	89.429098874317
0	2267	61.4	89.429098874317
0	2272	61.5	89.429098874317
0	2277	61.6	89.429098874317
0	2282	61.7	89.429098874317
0	2287	61.8	89.429098874317
0	2292	61.9	89.429098874317
0	2297	62	89.429098874317
0	2302	62.1	90.414738176702
0	2307	62.2	90.414738176702
0	2312	62.3	90.414738176702
0	2317	62.4	90.414738176702
0	2322	62.5	90.414738176702
0	2327	62.6	90.414738176702
0	2332	62.7	90.414738176702
0	2337	62.8	90.414738176702
0	2342	62.9	90.414738176702
0	2347	63	90.414738176702
0	2352	63.1	91.400377479086
0	2357	63.2	91.400377479086
0	2362	63.3	91.400377479086
0	2367	63.4	91.400377479086
0	2372	63.5	91.400377479086
0	2377	63.6	91.400377479086
0	2382	63.7	91.400377479086
0	2387	63.8	91.400377479086
0	2392	63.9	91.400377479086
0	2397	64	91.400377479086
0	2402	64.1	92.386016781471
0	2407	64.2	92.386016781471
0	2412	64.3	92.386016781471
0	2417	64.4	92.386016781471
0	2422	64.5	92.386016781471
0	2427	64.6	92.386016781471
0	2432	64.7	92.386016781471
0	2437	64.8	92.386016781471
0	2442	64.9	92.386016781471
0	2447	65	92.386016781471
0	2452	65.1	93.371656083855
0	2457	65.2	93.371656083855
0	2462	65.3	93.371656083855
0	2467	65.4	93.371656083855
0	2472	65.5	93.371656083855
0	2477	65.6	93.371656083855
0	2482	65.7	93.371656083855
0	2487	65.8	93.371656083855
0	2492	65.9	93.371656083855
0	2497	66	93.371656083855
0	2502	66.1	94.35729538624
0	2507	66.2	94.35729538624
0	2512	66.3	94.35729538624
0	2517	66.4	94.35729538624
0	2522	66.5	94.35729538624
0	2527	66.6	94.35729538624
0	2532	66.7	94.35729538624
0	2537	66.8	94.35729538624
0	2542	66.9	94.35729538624
0	2547	67	94.35729538624
0	2552	67.1	95.342934688624
0	2557	67.2	95.342934688624
0	2562	67.3	95.342934688624
0	2567	67.4	95.342934688624
0	2572	67.5	95.342934688624
0	2577	67.6	95.342934688624
0	2582	67.7	95.342934688624
0	2587	67.8	95.342934688624
0	2592	67.9	95.342934688624
0	2597	68	95.342934688624
0	2602	68.1	96.328573991009
0	2607	68.2	96.328573991009
0	2612	68.3	96.328573991009
0	2617	68.4	96.328573991009
0	2622	68.5	96.328573991009
0	2627	68.6	96.328573991009
0	2632	68.7	96.328573991009
0	2637	68.8	96.328573991009
0	2642	68.9	96.328573991009
0	2647	69	96.328573991009
0	2652	69.1	97.314213293393
0	2657	69.2	97.314213293393
0	2662	69.3	97.314213293393
0	2667	69.4	97.314213293393
0	2672	69.5	97.314213293393
0	2677	69.6	97.314213293393
0	2682	69.7	97.314213293393
0	2687	69.8	97.314213293393
0	2692	69.9	97.314213293393
0	2697	70	97.314213293393
0	2702	70.1	98.301069950562
0	2707	70.2	98.301069950562
0	2712	70.3	98.301069950562
0	2717	70.4	98.301069950562
0	2722	70.5	98.301069950562
0	2727	70.6	98.301069950562
0	2732	70.7	98.301069950562
0	2737	70.8	98.301069950562
0	2742	70.9	98.301069950562
0	2747	71	98.301069950562
0	2752	71.1	99.292713041469
0	2757	71.2	99.292713041469
0	2762	71.3	99.292713041469
0	2767	71.4	99.292713041469
0	2772	71.5	99.292713041469
0	2777	71.6	99.292713041469
0	2782	71.7	99.292713041469
0	2787	71.8	99.292713041469
0	2792	71.9	99.292713041469
0	2797	72	99.292713041469
0	2802	72.1	100.28435613237
0	2807	72.2	100.28435613237
0	2812	72.3	100.28435613237
0	2817	72.4	100.28435613237
0	2822	72.5	100.28435613237
0	2827	72.6	100.28435613237
0	2832	72.7	100.28435613237
0	2837	72.8	100.28435613237
0	2842	72.9	100.28435613237
0	2847	73	100.28435613237
0	2852	73.1	101.27599922328
0	2857	73.2	101.27599922328
0	2862	73.3	101.27599922328
0	2867	73.4	101.27599922328
0	2872	73.5	101.27599922328
0	2877	73.6	101.27599922328
0	2882	73.7	101.27599922328
0	2887	73.8	101.27599922328
0	2892	73.9	101.27599922328
0	2897	74	101.27599922328
0	2902	74.1	102.26764231419
0	2907	74.2	102.26764231419
0	2912	74.3	102.26764231419
0	2917	74.4	102.26764231419
0	2922	74.5	102.26764231419
0	2927	74.6	102.26764231419
0	2932	74.7	102.26764231419
0	2937	74.8	102.26764231419
0	2942	74.9	102.26764231419
0	2947	75	102.26764231419
0	2953	75.1	102.26764231419
0	2958	75.2	102.26764231419
0	2963	75.3	102.26764231419
0	2968	75.4	102.26764231419
0	2973	75.5	102.26764231419
0	2978	75.6	102.26764231419
0	2983	75.7	102.26764231419
0	2988	75.8	102.26764231419
0	2993	75.9	102.26764231419
0	2998	76	102.26764231419
0	3003	76.1	102.26764231419
0	3008	76.2	102.26764231419
0	3013	76.3	102.26764231419
0	3018	76.4	102.26764231419
0	3023	76.5	102.26764231419
0	3028	76.6	102.26764231419
0	3033	76.7	102.26764231419
0	3038	76.8	102.26764231419
0	3043	76.9	102.26764231419
0	3048	77	102.26764231419
0	3053	77.1	102.26764231419
0	3058	77.2	102.26764231419
0	3063	77.3	102.26764231419
0	3068	77.4	102.26764231419
0	3073	77.5	102.26764231419
0	3078	77.6	102.26764231419
0	3083	77.7	102.26764231419
0	3088	77.8	102.26764231419
0	3093	77.9	102.26764231419
0	3098	78	102.26764231419
0	3103	78.1	102.26764231419
0	3108	78.2	102.26764231419
0	3113	78.3	102.26764231419
0	3118	78.4	102.26764231419
0	3123	78.5	102.26764231419
0	3128	78.6	102.26764231419
0	3133	78.7	102.26764231419
0	3138	78.8	102.26764231419
0	3143	78.9	102.26764231419
0	3148	79	102.26764231419
0	3153	79.1	102.26764231419
0	3158	79.2	102.26764231419
0	3163	79.3	102.26764231419
0	3168	79.4	102.26764231419
0	3173	79.5	102.26764231419
0	3178	79.6	102.26764231419
0	3183	79.7	102.26764231419
0	3188	79.8	102.26764231419
0	3193	79.9	102.26764231419
0	3198	80	102.26764231419
0	3203	80.1	102.26764231419
0	3209	80.2	102.26764231419
0	3216	80.3	102.26764231419
0	3223	80.4	102.26764231419
0	3230	80.5	102.26764231419
0	3238	80.6	102.26764231419
0	3245	80.7	102.26764231419
0	3252	80.8	102.26764231419
0	3259	80.9	102.26764231419
0	3266	81	102.26764231419
0	3273	81.1	102.26764231419
0	3280	81.2	102.26764231419
0	3287	81.3	102.26764231419
0	3294	81.4	102.26764231419
0	3301	81.5	102.26764231419
0	3308	81.6	102.26764231419
0	3315	81.7	102.26764231419
0	3322	81.8	102.26764231419
0	3329	81.9	102.26764231419
0	3336	82	102.26764231419
0	3343	82.1	102.26764231419
0	3350	82.2	102.26764231419
0	3357	82.3	102.26764231419
0	3364	82.4	102.26764231419
0	3371	82.5	102.26764231419
0	3378	82.6	102.26764231419
0	3385	82.7	102.26764231419
0	3392	82.8	102.26764231419
0	3399	82.9	102.26764231419
0	3406	83	102.26764231419
0	3413	83.1	102.26764231419
0	3420	83.2	102.26764231419
0	3427	83.3	102.26764231419
0	3434	83.4	102.26764231419
0	3441	83.5	102.26764231419
0	3448	83.6	102.26764231419
0	3455	83.7	102.26764231419
0	3462	83.8	102.26764231419
0	3469	83.9	102.26764231419
0	3476	84	102.26764231419
0	3483	84.1	102.26764231419
0	3490	84.2	102.26764231419
0	3497	84.3	102.26764231419
0	3504	84.4	102.26764231419
0	3511	84.5	102.26764231419
0	3518	84.6	102.26764231419
0	3525	84.7	102.26764231419
0	3532	84.8	102.26764231419
0	3539	84.9	102.26764231419
0	3546	85	102.26764231419
0	3553	85.1	102.26764231419
0	3560	85.2	102.26764231419
0	3567	85.3	102.26764231419
0	3574	85.4	102.26764231419
0	3581	85.5	102.26764231419
0	3588	85.6	102.26764231419
0	3595	85.7	102.26764231419
0	3602	85.8	102.26764231419
0	3609	85.9	102.26764231419
0	3616	86	102.26764231419
0	3623	86.1	102.26764231419
0	3630	86.2	102.26764231419
0	3637	86.3	102.26764231419
0	3644	86.4	102.26764231419
0	3651	86.5	102.26764231419
0	3658	86.6	102.26764231419
0	3665	86.7	102.26764231419
0	3672	86.8	102.26764231419
0	3679	86.9	102.26764231419
0	3686	87	102.26764231419
0	3693	87.1	102.26764231419
0	3700	87.2	102.26764231419
0	3707	87.3	102.26764231419
0	3714	87.4	102.26764231419
0	3721	87.5	102.26764231419
0	3728	87.6	102.26764231419
0	3735	87.7	102.26764231419
0	3742	87.8	102.26764231419
0	3749	87.9	102.26764231419
0	3756	88	102.26764231419
0	3763	88.1	102.26764231419
0	3770	88.2	102.26764231419
0	3777	88.3	102.26764231419
0	3784	88.4	102.26764231419
0	3791	88.5	102.26764231419
0	3798	88.6	102.26764231419
0	3805	88.7	102.26764231419
0	3812	88.8	102.26764231419
0	3819	88.9	102.26764231419
0	3826	89	102.26764231419
0	3833	89.1	102.26764231419
0	3840	89.2	102.26764231419
0	3847	89.3	102.26764231419
0	3854	89.4	102.26764231419
0	3861	89.5	102.26764231419
0	3868	89.6	102.26764231419
0	3875	89.7	102.26764231419
0	3882	89.8	102.26764231419
0	3889	89.9	102.26764231419
0	3896	90	102.26764231419
0	3903	90.1	102.26764231419
0	3910	90.2	102.26764231419
0	3917	90.3	102.26764231419
0	3924	90.4	102.26764231419
0	3931	90.5	102.26764231419
0	3938	90.6	102.26764231419
0	3945	90.7	102.26764231419
0	3952	90.8	102.26764231419
0	3959	90.9	102.26764231419
0	3966	91	102.26764231419
0	3973	91.1	102.26764231419
0	3980	91.2	102.26764231419
0	3987	91.3	102.26764231419
0	3994	91.4	102.26764231419
0	4001	91.5	102.26764231419
0	4008	91.6	102.26764231419
0	4015	91.7	102.26764231419
0	4022	91.8	102.26764231419
0	4029	91.9	102.26764231419
0	4036	92	102.26764231419
0	4043	92.1	102.26764231419
0	4050	92.2	102.26764231419
0	4057	92.3	102.26764231419
0	4064	92.4	102.26764231419
0	4071	92.5	102.26764231419
0	4078	92.6	102.26764231419
0	4085	92.7	102.26764231419
0	4092	92.8	102.26764231419
0	4099	92.9	102.26764231419
0	4106	93	102.26764231419
0	4113	93.1	102.26764231419
0	4120	93.2	102.26764231419
0	4127	93.3	102.26764231419
0	4134	93.4	102.26764231419
0	4141	93.5	102.26764231419
0	4148	93.6	102.26764231419
0	4155	93.7	102.26764231419
0	4162	93.8	102.26764231419
0	4169	93.9	102.26764231419
0	4176	94	102.26764231419
0	4183	94.1	102.26764231419
0	4190	94.2	102.26764231419
0	4197	94.3	102.26764231419
0	4204	94.4	102.26764231419
0	4211	94.5	102.26764231419
0	4218	94.6	102.26764231419
0	4225	94.7	102.26764231419
0	4232	94.8	102.26764231419
0	4239	94.9	102.26764231419
0	4246	95	102.26764231419
0	4253	95.1	102.26764231419
0	4260	95.2	102.26764231419
0	4267	95.3	102.26764231419
0	4274	95.4	102.26764231419
0	4281	95.5	102.26764231419
0	4288	95.6	102.26764231419
0	4295	95.7	102.26764231419
0	4302	95.8	102.26764231419
0	4309	95.9	102.26764231419
0	4316	96	102.26764231419
0	4323	96.1	102.26764231419
0	4330	96.2	102.26764231419
0	4337	96.3	102.26764231419
0	4344	96.4	102.26764231419
0	4351	96.5	102.26764231419
0	4358	96.6	102.26764231419
0	4365	96.7	102.26764231419
0	4372	96.8	102.26764231419
0	4379	96.9	102.26764231419
0	4386	97	102.26764231419
0	4393	97.1	102.26764231419
0	4400	97.2	102.26764231419
0	4407	97.3	102.26764231419
0	4414	97.4	102.26764231419
0	4421	97.5	102.26764231419
0	4428	97.6	102.26764231419
0	4435	97.7	102.26764231419
0	4442	97.8	102.26764231419
0	4449	97.9	102.26764231419
0	4456	98	102.26764231419
0	4463	98.1	102.26764231419
0	4470	98.2	102.26764231419
0	4477	98.3	102.26764231419
0	4484	98.4	102.26764231419
0	4491	98.5	102.26764231419
0	4498	98.6	102.26764231419
0	4505	98.7	102.26764231419
0	4512	98.8	102.26764231419
0	4519	98.9	102.26764231419
0	4526	99	102.26764231419
0	4533	99.1	102.26764231419
0	4540	99.2	102.26764231419
0	4547	99.3	102.26764231419
0	4554	99.4	102.26764231419
0	4561	99.5	102.26764231419
0	4568	99.6	102.26764231419
0	4575	99.7	102.26764231419
0	4582	99.8	102.26764231419
0	4589	99.9	102.26764231419
0	4596	100	102.26764231419
0	4603	100.1	102.26764231419
0	4610	100.2	102.26764231419
0	4617	100.3	102.26764231419
0	4624	100.4	102.26764231419
0	4631	100.5	102.26764231419
0	4638	100.6	102.26764231419
0	4645	100.7	102.26764231419
0	4652	100.8	102.26764231419
0	4659	100.9	102.26764231419
0	4666	101	102.26764231419
0	4673	101.1	102.26764231419
0	4680	101.2	102.26764231419
0	4687	101.3	102.26764231419
0	4694	101.4	102.26764231419
0	4701	101.5	102.26764231419
0	4708	101.6	102.26764231419
0	4715	101.7	102.26764231419
0	4722	101.8	102.26764231419
0	4729	101.9	102.26764231419
0	4736	102	102.26764231419
0	4743	102.1	102.26764231419
0	4750	102.2	102.26764231419
0	4757	102.3	102.26764231419
0	4764	102.4	102.26764231419
0	4771	102.5	102.26764231419
0	4778	102.6	102.26764231419
0	4785	102.7	102.26764231419
0	4792	102.8	102.26764231419
0	4799	102.9	102.26764231419
0	4806	103	102.26764231419
0	4813	103.1	102.26764231419
0	4820	103.2	102.26764231419
0	4827	103.3	102.26764231419
0	4834	103.4	102.26764231419
0	4841	103.5	102.26764231419
0	4848	103.6	102.26764231419
0	4855	103.7	102.26764231419
0	4862	103.8	102.26764231419
0	4869	103.9	102.26764231419
0	4876	104	102.26764231419
0	4883	104.1	102.26764231419
0	4890	104.2	102.26764231419
0	4897	104.3	102.26764231419
0	4904	104.4	102.26764231419
0	4911	104.5	102.26764231419
0	4918	104.6	102.26764231419
0	4925	104.7	102.26764231419
0	4932	104.8	102.26764231419
0	4939	104.9	102.26764231419
0	4946	105	102.26764231419
0	4953	105.1	102.26764231419
0	4960	105.2	102.26764231419
0	4967	105.3	102.26764231419
0	4974	105.4	102.26764231419
0	4981	105.5	102.26764231419
0	4988	105.6	102.26764231419
0	4995	105.7	102.26764231419
0	5002	105.8	102.26764231419
0	5009	105.9	102.26764231419
0	5016	106	102.26764231419
0	5023	106.1	102.26764231419
0	5030	106.2	102.26764231419
0	5037	106.3	102.26764231419
0	5044	106.4	102.26764231419
0	5051	106.5	102.26764231419
0	5058	106.6	102.26764231419
0	5065	106.7	102.26764231419
0	5072	106.8	102.26764231419
0	5079	106.9	102.26764231419
0	5086	107	102.26764231419
0	5093	107.1	102.26764231419
0	5100	107.2	102.26764231419
0	5107	107.3	102.26764231419
0	5114	107.4	102.26764231419
0	5121	107.5	102.26764231419
0	5128	107.6	102.26764231419
0	5135	107.7	102.26764231419
0	5142	107.8	102.26764231419
0	5149	107.9	102.26764231419
0	5156	108	102.26764231419
0	5163	108.1	102.26764231419
0	5170	108.2	102.26764231419
0	5177	108.3	102.26764231419
0	5184	108.4	102.26764231419
0	5191	108.5	102.26764231419
0	5198	108.6	102.26764231419
0	5205	108.7	102.26764231419
0	5212	108.8	102.26764231419
0	5219	108.9	102.26764231419
0	5226	109	102.26764231419
0	5233	109.1	102.26764231419
0	5240	109.2	102.26764231419
0	5247	109.3	102.26764231419
0	5254	109.4	102.26764231419
0	5261	109.5	102.26764231419
0	5268	109.6	102.26764231419
0	5275	109.7	102.26764231419
0	5282	109.8	102.26764231419
0	5289	109.9	102.26764231419
0	5296	110	102.26764231419
0	5303	110.1	102.26764231419
0	5310	110.2	102.26764231419
0	5317	110.3	102.26764231419
0	5324	110.4	102.26764231419
0	5331	110.5	102.26764231419
0	5338	110.6	102.26764231419
0	5345	110.7	102.26764231419
0	5352	110.8	102.26764231419
0	5359	110.9	102.26764231419
0	5366	111	102.26764231419
0	5373	111.1	102.26764231419
0	5380	111.2	102.26764231419
0	5387	111.3	102.26764231419
0	5394	111.4	102.26764231419
0	5401	111.5	102.26764231419
0	5408	111.6	102.26764231419
0	5415	111.7	102.26764231419
0	5422	111.8	102.26764231419
0	5429	111.9	102.26764231419
0	5436	112	102.26764231419
0	5443	112.1	102.26764231419
0	5450	112.2	102.26764231419
0	5457	112.3	102.26764231419
0	5464	112.4	102.26764231419
0	5471	112.5	102.26764231419
0	5478	112.6	102.26764231419
0	5485	112.7	102.26764231419
0	5492	112.8	102.26764231419
0	5499	112.9	102.26764231419
0	5506	113	102.26764231419
0	5513	113.1	102.26764231419
0	5520	113.2	102.26764231419
0	5527	113.3	102.26764231419
0	5534	113.4	102.26764231419
0	5541	113.5	102.26764231419
0	5548	113.6	102.26764231419
0	5555	113.7	102.26764231419
0	5562	113.8	102.26764231419
0	5569	113.9	102.26764231419
0	5576	114	102.26764231419
0	5583	114.1	102.26764231419
0	5590	114.2	102.26764231419
0	5597	114.3	102.26764231419
0	5604	114.4	102.26764231419
0	5611	114.5	102.26764231419
0	5618	114.6	102.26764231419
0	5625	114.7	102.26764231419
0	5632	114.8	102.26764231419
0	5639	114.9	102.26764231419
0	5646	115	102.26764231419
0	5653	115.1	102.26764231419
0	5660	115.2	102.26764231419
0	5667	115.3	102.26764231419
0	5674	115.4	102.26764231419
0	5681	115.5	102.26764231419
0	5688	115.6	102.26764231419
0	5695	115.7	102.26764231419
0	5702	115.8	102.26764231419
0	5709	115.9	102.26764231419
0	5716	116	102.26764231419
0	5723	116.1	102.26764231419
0	5730	116.2	102.26764231419
0	5737	116.3	102.26764231419
0	5744	116.4	102.26764231419
0	5751	116.5	102.26764231419
0	5758	116.6	102.26764231419
0	5765	116.7	102.26764231419
0	5772	116.8	102.26764231419
0	5779	116.9	102.26764231419
0	5786	117	102.26764231419
0	5793	117.1	102.26764231419
0	5800	117.2	102.26764231419
0	5807	117.3	102.26764231419
0	5814	117.4	102.26764231419
0	5821	117.5	102.26764231419
0	5828	117.6	102.26764231419
0	5835	117.7	102.26764231419
0	5842	117.8	102.26764231419
0	5849	117.9	102.26764231419
0	5856	118	102.26764231419
0	5863	118.1	102.26764231419
0	5870	118.2	102.26764231419
0	5877	118.3	102.26764231419
0	5884	118.4	102.26764231419
0	5891	118.5	102.26764231419
0	5898	118.6	102.26764231419
0	5905	118.7	102.26764231419
0	5912	118.8	102.26764231419
0	5919	118.9	102.26764231419
0	5926	119	102.26764231419
0	5933	119.1	102.26764231419
0	5940	119.2	102.26764231419
0	5947	119.3	102.26764231419
0	5954	119.4	102.26764231419
0	5961	119.5	102.26764231419
0	5968	119.6	102.26764231419
0	5975	119.7	102.26764231419
0	5982	119.8	102.26764231419
0	5989	119.9	102.26764231419
0	5996	120	102.26764231419
0	6003	120.1	102.26764231419
0	6010	120.2	102.26764231419
0	6017	120.3	102.26764231419
0	6024	120.4	102.26764231419
0	6031	120.5	102.26764231419
0	6038	120.6	102.26764231419
0	6045	120.7	102.26764231419
0	6052	120.8	102.26764231419
0	6059	120.9	102.26764231419
0	6066	121	102.26764231419
0	6073	121.1	102.26764231419
0	6080	121.2	102.26764231419
0	6087	121.3	102.26764231419
0	6094	121.4	102.26764231419
0	6101	121.5	102.26764231419
0	6108	121.6	102.26764231419
0	6115	121.7	102.26764231419
0	6122	121.8	102.26764231419
0	6129	121.9	102.26764231419
0	6136	122	102.26764231419
0	6143	122.1	102.26764231419
0	6150	122.2	102.26764231419
0	6157	122.3	102.26764231419
0	6164	122.4	102.26764231419
0	6171	122.5	102.26764231419
0	6178	122.6	102.26764231419
0	6185	122.7	102.26764231419
0	6192	122.8	102.26764231419
0	6199	122.9	102.26764231419
0	6206	123	102.26764231419
0	6213	123.1	102.26764231419
0	6220	123.2	102.26764231419
0	6227	123.3	102.26764231419
0	6234	123.4	102.26764231419
0	6241	123.5	102.26764231419
0	6248	123.6	102.26764231419
0	6255	123.7	102.26764231419
0	6262	123.8	102.26764231419
0	6269	123.9	102.26764231419
0	6276	124	102.26764231419
0	6283	124.1	102.26764231419
0	6290	124.2	102.26764231419
0	6297	124.3	102.26764231419
0	6304	124.4	102.26764231419
0	6311	124.5	102.26764231419
0	6318	124.6	102.26764231419
0	6325	124.7	102.26764231419
0	6332	124.8	102.26764231419
0	6339	124.9	102.26764231419
0	6346	125	102.26764231419
0	6354	125.1	103.25928540509
0	6361	125.2	103.25928540509
0	6368	125.3	103.25928540509
0	6375	125.4	103.25928540509
0	6382	125.5	103.25928540509
0	6389	125.6	103.25928540509
0	6396	125.7	103.25928540509
0	6403	125.8	103.25928540509
0	6410	125.9	103.25928540509
0	6417	126	103.25928540509
0	6424	126.1	104.250928496
0	6431	126.2	104.250928496
0	6438	126.3	104.250928496
0	6445	126.4	104.250928496
0	6452	126.5	104.250928496
0	6459	126.6	104.250928496
0	6466	126.7	104.250928496
0	6473	126.8	104.250928496
0	6480	126.9	104.250928496
0	6487	127	104.250928496
0	6494	127.1	105.24257158691
0	6501	127.2	105.24257158691
0	6508	127.3	105.24257158691
0	6515	127.4	105.24257158691
0	6522	127.5	105.24257158691
0	6529	127.6	105.24257158691
0	6536	127.7	105.24257158691
0	6543	127.8	105.24257158691
0	6550	127.9	105.24257158691
0	6557	128	105.24257158691
0	6564	128.1	106.23421467781
0	6571	128.2	106.23421467781
0	6578	128.3	106.23421467781
0	6585	128.4	106.23421467781
0	6592	128.5	106.23421467781
0	6599	128.6	106.23421467781
0	6606	128.7	106.23421467781
0	6613	128.8	106.23421467781
0	6620	128.9	106.23421467781
0	6627	129	106.23421467781
0	6634	129.1	107.22585776872
0	6641	129.2	107.22585776872
0	6648	129.3	107.22585776872
0	6655	129.4	107.22585776872
0	6662	129.5	107.22585776872
0	6669	129.6	107.22585776872
0	6676	129.7	107.22585776872
0	6683	129.8	107.22585776872
0	6690	129.9	107.22585776872
0	6697	130	107.22585776872
0	6704	130.1	108.21750085962
0	6711	130.2	108.21750085962
0	6718	130.3	108.21750085962
0	6725	130.4	108.21750085962
0	6732	130.5	108.21750085962
0	6739	130.6	108.21750085962
0	6746	130.7	108.21750085962
0	6753	130.8	108.21750085962
0	6760	130.9	108.21750085962
0	6767	131	108.21750085962
0	6774	131.1	109.20914395053
0	6781	131.2	109.20914395053
0	6788	131.3	109.20914395053
0	6795	131.4	109.20914395053
0	6802	131.5	109.20914395053
0	6809	131.6	109.20914395053
0	6816	131.7	109.20914395053
0	6823	131.8	109.20914395053
0	6830	131.9	109.20914395053
0	6837	132	109.20914395053
0	6844	132.1	110.20078704144
0	6851	132.2	110.20078704144
0	6858	132.3	110.20078704144
0	6865	132.4	110.20078704144
0	6872	132.5	110.20078704144
0	6879	132.6	110.20078704144
0	6886	132.7	110.20078704144
0	6893	132.8	110.20078704144
0	6900	132.9	110.20078704144
0	6907	133	110.20078704144
0	6914	133.1	111.19243013234
0	6921	133.2	111.19243013234
0	6928	133.3	111.19243013234
0	6935	133.4	111.19243013234
0	6942	133.5	111.19243013234
0	6949	133.6	111.19243013234
0	6956	133.7	111.19243013234
0	6963	133.8	111.19243013234
0	6970	133.9	111.19243013234
0	6977	134	111.19243013234
0	6984	134.1	112.18407322325
0	6991	134.2	112.18407322325
0	6998	134.3	112.18407322325
0	7005	134.4	112.18407322325
0	7012	134.5	112.18407322325
0	7019	134.6	112.18407322325
0	7026	134.7	112.18407322325
0	7033	134.8	112.18407322325
0	7040	134.9	112.18407322325
0	7047	135	112.18407322325
0	7054	135.1	113.17571631416
0	7061	135.2	113.17571631416
0	7068	135.3	113.17571631416
0	7075	135.4	113.17571631416
0	7082	135.5	113.17571631416
0	7089	135.6	113.17571631416
0	7096	135.7	113.17571631416
0	7103	135.8	113.17571631416
0	7110	135.9	113.17571631416
0	7117	136	113.17571631416
0	7124	136.1	114.16735940506
0	7131	136.2	114.16735940506
0	7138	136.3	114.16735940506
0	7145	136.4	114.16735940506
0	7152	136.5	114.16735940506
0	7159	136.6	114.16735940506
0	7166	136.7	114.16735940506
0	7173	136.8	114.16735940506
0	7180	136.9	114.16735940506
0	7187	137	114.16735940506
0	7194	137.1	115.15900249597
0	7201	137.2	115.15900249597
0	7208	137.3	115.15900249597
0	7215	137.4	115.15900249597
0	7222	137.5	115.15900249597
0	7229	137.6	115.15900249597
0	7236	137.7	115.15900249597
0	7243	137.8	115.15900249597
0	7250	137.9	115.15900249597
0	7257	138	115.15900249597
0	7264	138.1	116.15064558687
0	7271	138.2	116.15064558687
0	7278	138.3	116.15064558687
0	7285	138.4	116.15064558687
0	7292	138.5	116.15064558687
0	7299	138.6	116.15064558687
0	7306	138.7	116.15064558687
0	7313	138.8	116.15064558687
0	7320	138.9	116.15064558687
0	7327	139	116.15064558687
0	7334	139.1	117.14228867778
0	7341	139.2	117.14228867778
0	7348	139.3	117.14228867778
0	7355	139.4	117.14228867778
0	7362	139.5	117.14228867778
0	7369	139.6	117.14228867778
0	7376	139.7	117.14228867778
0	7383	139.8	117.14228867778
0	7390	139.9	117.14228867778
0	7397	140	117.14228867778
0	7404	140.1	118.13393176869
0	7411	140.2	118.13393176869
0	7418	140.3	118.13393176869
0	7425	140.4	118.13393176869
0	7432	140.5	118.13393176869
0	7439	140.6	118.13393176869
0	7446	140.7	118.13393176869
0	7453	140.8	118.13393176869
0	7460	140.9	118.13393176869
0	7467	141	118.13393176869
0	7474	141.1	119.12557485959
0	7481	141.2	119.12557485959
0	7488	141.3	119.12557485959
0	7495	141.4	119.12557485959
0	7502	141.5	119.12557485959
0	7509	141.6	119.12557485959
0	7516	141.7	119.12557485959
0	7523	141.8	119.12557485959
0	7530	141.9	119.12557485959
0	7537	142	119.12557485959
0	7544	142.1	120.1170196574
0	7551	142.2	120.1170196574
0	7558	142.3	120.1170196574
0	7565	142.4	120.1170196574
0	7572	142.5	120.1170196574
0	7579	142.6	120.1170196574
0	7586	142.7	120.1170196574
0	7593	142.8	120.1170196574
0	7600	142.9	120.1170196574
0	7607	143	120.1170196574
0	7614	143.1	121.10807963585
0	7621	143.2	121.10807963585
0	7628	143.3	121.10807963585
0	7635	143.4	121.10807963585
0	7642	143.5	121.10807963585
0	7649	143.6	121.10807963585
0	7656	143.7	121.10807963585
0	7663	143.8	121.10807963585
0	7670	143.9	121.10807963585
0	7677	144	121.10807963585
0	7684	144.1	122.0991396143
0	7691	144.2	122.0991396143
0	7698	144.3	122.0991396143
0	7705	144.4	122.0991396143
0	7712	144.5	122.0991396143
0	7719	144.6	122.0991396143
0	7726	144.7	122.0991396143
0	7733	144.8	122.0991396143
0	7740	144.9	122.0991396143
0	7747	145	122.0991396143
0	7754	145.1	123.09019959275
0	7761	145.2	123.09019959275
0	7768	145.3	123.09019959275
0	7775	145.4	123.09019959275
0	7782	145.5	123.09019959275
0	7789	145.6	123.09019959275
0	7796	145.7	123.09019959275
0	7803	145.8	123.09019959275
0	7810	145.9	123.09019959275
0	7817	146	123.09019959275
0	7824	146.1	124.0812595712
0	7831	146.2	124.0812595712
0	7838	146.3	124.0812595712
0	7845	146.4	124.0812595712
0	7852	146.5	124.0812595712
0	7859	146.6	124.0812595712
0	7866	146.7	124.0812595712
0	7873	146.8	124.0812595712
0	7880	146.9	124.0812595712
0	7887	147	124.0812595712
0	7894	147.1	125.07231954965
0	7901	147.2	125.07231954965
0	7908	147.3	125.07231954965
0	7915	147.4	125.07231954965
0	7922	147.5	125.07231954965
0	7929	147.6	125.07231954965
0	7936	147.7	125.07231954965
0	7943	147.8	125.07231954965
0	7950	147.9	125.07231954965
0	7957	148	125.07231954965
0	7964	148.1	126.0633795281
0	7971	148.2	126.0633795281
0	7978	148.3	126.0633795281
0	7985	148.4	126.0633795281
0	7992	148.5	126.0633795281
0	7999	148.6	126.0633795281
0	8006	148.7	126.0633795281
0	8013	148.8	126.0633795281
0	8020	148.9	126.0633795281
0	8027	149	126.0633795281
0	8034	149.1	127.05443950655
0	8041	149.2	127.05443950655
0	8048	149.3	127.05443950655
0	8055	149.4	127.05443950655
0	8062	149.5	127.05443950655
0	8069	149.6	127.05443950655
0	8076	149.7	127.05443950655
0	8083	149.8	127.05443950655
0	8090	149.9	127.05443950655
0	8097	150	127.05443950655
0	8104	150.1	128.04549948501
0	8111	150.2	128.04549948501
0	8118	150.3	128.04549948501
0	8125	150.4	128.04549948501
0	8132	150.5	128.04549948501
0	8139	150.6	128.04549948501
0	8146	150.7	128.04549948501
0	8153	150.8	128.04549948501
0	8160	150.9	128.04549948501
0	8167	151	128.04549948501
0	8174	151.1	129.03655946346
0	8181	151.2	129.03655946346
0	8188	151.3	129.03655946346
0	8195	151.4	129.03655946346
0	8202	151.5	129.03655946346
0	8209	151.6	129.03655946346
0	8216	151.7	129.03655946346
0	8223	151.8	129.03655946346
0	8230	151.9	129.03655946346
0	8237	152	129.03655946346
0	8244	152.1	130.02761944191
0	8251	152.2	130.02761944191
0	8258	152.3	130.02761944191
0	8265	152.4	130.02761944191
0	8272	152.5	130.02761944191
0	8279	152.6	130.02761944191
0	8286	152.7	130.02761944191
0	8293	152.8	130.02761944191
0	8300	152.9	130.02761944191
0	8307	153	130.02761944191
0	8314	153.1	131.01867942036
0	8321	153.2	131.01867942036
0	8328	153.3	131.01867942036
0	8335	153.4	131.01867942036
0	8342	153.5	131.01867942036
0	8349	153.6	131.01867942036
0	8356	153.7	131.01867942036
0	8363	153.8	131.01867942036
0	8370	153.9	131.01867942036
0	8377	154	131.01867942036
0	8384	154.1	132.00973939881
0	8391	154.2	132.00973939881
0	8398	154.3	132.00973939881
0	8405	154.4	132.00973939881
0	8412	154.5	132.00973939881
0	8419	154.6	132.00973939881
0	8426	154.7	132.00973939881
0	8433	154.8	132.00973939881
0	8440	154.9	132.00973939881
0	8447	155	132.00973939881
0	8454	155.1	133.00079937726
0	8461	155.2	133.00079937726
0	8468	155.3	133.00079937726
0	8475	155.4	133.00079937726
0	8482	155.5	133.00079937726
0	8489	155.6	133.00079937726
0	8496	155.7	133.00079937726
0	8503	155.8	133.00079937726
0	8510	155.9	133.00079937726
0	8517	156	133.00079937726
0	8524	156.1	133.99185935571
0	8531	156.2	133.99185935571
0	8538	156.3	133.99185935571
0	8545	156.4	133.99185935571
0	8552	156.5	133.99185935571
0	8559	156.6	133.99185935571
0	8566	156.7	133.99185935571
0	8573	156.8	133.99185935571
0	8580	156.9	133.99185935571
0	8587	157	133.99185935571
0	8594	157.1	134.98291933416
0	8601	157.2	134.98291933416
0	8608	157.3	134.98291933416
0	8615	157.4	134.98291933416
0	8622	157.5	134.98291933416
0	8629	157.6	134.98291933416
0	8636	157.7	134.98291933416
0	8643	157.8	134.98291933416
0	8650	157.9	134.98291933416
0	8657	158	134.98291933416
0	8664	158.1	135.97397931262
0	8671	158.2	135.97397931262
0	8678	158.3	135.97397931262
0	8685	158.4	135.97397931262
0	8692	158.5	135.97397931262
0	8699	158.6	135.97397931262
0	8706	158.7	135.97397931262
0	8713	158.8	135.97397931262
0	8720	158.9	135.97397931262
0	8727	159	135.97397931262
0	8734	159.1	136.96503929107
0	8741	159.2	136.96503929107
0	8748	159.3	136.96503929107
0	8755	159.4	136.96503929107
0	8762	159.5	136.96503929107
0	8769	159.6	136.96503929107
0	8776	159.7	136.96503929107
0	8783	159.8	136.96503929107
0	8790	159.9	136.96503929107
0	8797	160	136.96503929107
0	8804	160.1	137.95609926952
0	8811	160.2	137.95609926952
0	8818	160.3	137.95609926952
0	8825	160.4	137.95609926952
0	8832	160.5	137.95609926952
0	8839	160.6	137.95609926952
0	8846	160.7	137.95609926952
0	8853	160.8	137.95609926952
0	8860	160.9	137.95609926952
0	8867	161	137.95609926952
0	8874	161.1	138.94715924797
0	8881	161.2	138.94715924797
0	8888	161.3	138.94715924797
0	8895	161.4	138.94715924797
0	8902	161.5	138.94715924797
0	8909	161.6	138.94715924797
0	8916	161.7	138.94715924797
0	8923	161.8	138.94715924797
0	8930	161.9	138.94715924797
0	8937	162	138.94715924797
0	8944	162.1	139.93821922642
0	8951	162.2	139.93821922642
0	8958	162.3	139.93821922642
0	8965	162.4	139.93821922642
0	8972	162.5	139.93821922642
0	8979	162.6	139.93821922642
0	8986	162.7	139.93821922642
0	8993	162.8	139.93821922642
0	9000	162.9	139.93821922642
0	9007	163	139.93821922642
0	9014	163.1	140.92927920487
0	9021	163.2	140.92927920487
0	9028	163.3	140.92927920487
0	9035	163.4	140.92927920487
0	9042	163.5	140.92927920487
0	9049	163.6	140.92927920487
0	9056	163.7	140.92927920487
0	9063	163.8	140.92927920487
0	9070	163.9	140.92927920487
0	9077	164	140.92927920487
0	9084	164.1	141.9096865031
0	9091	164.2	141.9096865031
0	9098	164.3	141.9096865031
0	9105	164.4	141.9096865031
0	9112	164.5	141.9096865031
0	9119	164.6	141.9096865031
0	9126	164.7	141.9096865031
0	9133	164.8	141.9096865031
0	9140	164.9	141.9096865031
0	9147	165	141.9096865031
0	9154	165.1	142.88997730572
0	9161	165.2	142.88997730572
0	9168	165.3	142.88997730572
0	9175	165.4	142.88997730572
0	9182	165.5	142.88997730572
0	9189	165.6	142.88997730572
0	9196	165.7	142.88997730572
0	9203	165.8	142.88997730572
0	9210	165.9	142.88997730572
0	9217	166	142.88997730572
0	9224	166.1	143.87026810834
0	9231	166.2	143.87026810834
0	9238	166.3	143.87026810834
0	9245	166.4	143.87026810834
0	9252	166.5	143.87026810834
0	9259	166.6	143.87026810834
0	9266	166.7	143.87026810834
0	9273	166.8	143.87026810834
0	9280	166.9	143.87026810834
0	9287	167	143.87026810834
0	9294	167.1	144.85055891097
0	9301	167.2	144.85055891097
0	9308	167.3	144.85055891097
0	9315	167.4	144.85055891097
0	9322	167.5	144.85055891097
0	9329	167.6	144.85055891097
0	9336	167.7	144.85055891097
0	9343	167.8	144.85055891097
0	9350	167.9	144.85055891097
0	9357	168	144.85055891097
0	9364	168.1	145.83084971359
0	9371	168.2	145.83084971359
0	9378	168.3	145.83084971359
0	9385	168.4	145.83084971359
0	9392	168.5	145.83084971359
0	9399	168.6	145.83084971359
0	9406	168.7	145.83084971359
0	9413	168.8	145.83084971359
0	9420	168.9	145.83084971359
0	9427	169	145.83084971359
0	9434	169.1	146.81114051622
0	9441	169.2	146.81114051622
0	9448	169.3	146.81114051622
0	9455	169.4	146.81114051622
0	9462	169.5	146.81114051622
0	9469	169.6	146.81114051622
0	9476	169.7	146.81114051622
0	9483	169.8	146.81114051622
0	9490	169.9	146.81114051622
0	9497	170	146.81114051622
0	9504	170.1	147.79143131884
0	9511	170.2	147.79143131884
0	9518	170.3	147.79143131884
0	9525	170.4	147.79143131884
0	9532	170.5	147.79143131884
0	9539	170.6	147.79143131884
0	9546	170.7	147.79143131884
0	9553	170.8	147.79143131884
0	9560	170.9	147.79143131884
0	9567	171	147.79143131884
0	9574	171.1	148.77172212147
0	9581	171.2	148.77172212147
0	9588	171.3	148.77172212147
0	9595	171.4	148.77172212147
0	9602	171.5	148.77172212147
0	9609	171.6	148.77172212147
0	9616	171.7	148.77172212147
0	9623	171.8	148.77172212147
0	9630	171.9	148.77172212147
0	9637	172	148.77172212147
0	9644	172.1	149.75201292409
0	9651	172.2	149.75201292409
0	9658	172.3	149.75201292409
0	9665	172.4	149.75201292409
0	9672	172.5	149.75201292409
0	9679	172.6	149.75201292409
0	9686	172.7	149.75201292409
0	9693	172.8	149.75201292409
0	9700	172.9	149.75201292409
0	9707	173	149.75201292409
0	9714	173.1	150.73230372671
0	9721	173.2	150.73230372671
0	9728	173.3	150.73230372671
0	9735	173.4	150.73230372671
0	9742	173.5	150.73230372671
0	9749	173.6	150.73230372671
0	9756	173.7	150.73230372671
0	9763	173.8	150.73230372671
0	9770	173.9	150.73230372671
0	9777	174	150.73230372671
0	9784	174.1	151.71259452934
0	9791	174.2	151.71259452934
0	9798	174.3	151.71259452934
0	9805	174.4	151.71259452934
0	9812	174.5	151.71259452934
0	9819	174.6	151.71259452934
0	9826	174.7	151.71259452934
0	9833	174.8	151.71259452934
0	9840	174.9	151.71259452934
0	9847	175	151.71259452934
0	9854	175.1	152.69288533196
0	9861	175.2	152.69288533196
0	9868	175.3	152.69288533196
0	9875	175.4	152.69288533196
0	9882	175.5	152.69288533196
0	9889	175.6	152.69288533196
0	9896	175.7	152.69288533196
0	9903	175.8	152.69288533196
0	9910	175.9	152.69288533196
0	9917	176	152.69288533196
0	9924	176.1	153.67317613459
0	9931	176.2	153.67317613459
0	9938	176.3	153.67317613459
0	9945	176.4	153.67317613459
0	9952	176.5	153.67317613459
0	9959	176.6	153.67317613459
0	9966	176.7	153.67317613459
0	9973	176.8	153.67317613459
0	9980	176.9	153.67317613459
0	9987	177	153.67317613459
0	9994	177.1	154.65346693721
0	10001	177.2	154.65346693721
0	10008	177.3	154.65346693721
0	10015	177.4	154.65346693721
0	10022	177.5	154.65346693721
0	10029	177.6	154.65346693721
0	10036	177.7	154.65346693721
0	10043	177.8	154.65346693721
0	10050	177.9	154.65346693721
0	10057	178	154.65346693721
0	10064	178.1	155.63375773984
0	10071	178.2	155.63375773984
0	10078	178.3	155.63375773984
0	10085	178.4	155.63375773984
0	10092	178.5	155.63375773984
0	10099	178.6	155.63375773984
0	10106	178.7	155.63375773984
0	10113	178.8	155.63375773984
0	10120	178.9	155.63375773984
0	10127	179	155.63375773984
0	10134	179.1	156.61404854246
0	10141	179.2	156.61404854246
0	10148	179.3	156.61404854246
0	10155	179.4	156.61404854246
0	10162	179.5	156.61404854246
0	10169	179.6	156.61404854246
0	10176	179.7	156.61404854246
0	10183	179.8	156.61404854246
0	10190	179.9	156.61404854246
0	10197	180	156.61404854246
0	10204	180.1	157.59433934508
0	10211	180.2	157.59433934508
0	10218	180.3	157.59433934508
0	10225	180.4	157.59433934508
0	10232	180.5	157.59433934508
0	10239	180.6	157.59433934508
0	10246	180.7	157.59433934508
0	10253	180.8	157.59433934508
0	10260	180.9	157.59433934508
0	10267	181	157.59433934508
0	10274	181.1	158.57371968842
0	10281	181.2	158.57371968842
0	10288	181.3	158.57371968842
0	10295	181.4	158.57371968842
0	10302	181.5	158.57371968842
0	10309	181.6	158.57371968842
0	10316	181.7	158.57371968842
0	10323	181.8	158.57371968842
0	10330	181.9	158.57371968842
0	10337	182	158.57371968842
0	10344	182.1	159.53401246484
0	10351	182.2	159.53401246484
0	10358	182.3	159.53401246484
0	10365	182.4	159.53401246484
0	10372	182.5	159.53401246484
0	10379	182.6	159.53401246484
0	10386	182.7	159.53401246484
0	10393	182.8	159.53401246484
0	10400	182.9	159.53401246484
0	10407	183	159.53401246484
0	10414	183.1	160.49430524125
0	10421	183.2	160.49430524125
0	10428	183.3	160.49430524125
0	10435	183.4	160.49430524125
0	10442	183.5	160.49430524125
0	10449	183.6	160.49430524125
0	10456	183.7	160.49430524125
0	10463	183.8	160.49430524125
0	10470	183.9	160.49430524125
0	10477	184	160.49430524125
0	10484	184.1	161.45459801767
0	10491	184.2	161.45459801767
0	10498	184.3	161.45459801767
0	10505	184.4	161.45459801767
0	10512	184.5	161.45459801767
0	10519	184.6	161.45459801767
0	10526	184.7	161.45459801767
0	10533	184.8	161.45459801767
0	10540	184.9	161.45459801767
0	10547	185	161.45459801767
0	10554	185.1	162.41489079408
0	10561	185.2	162.41489079408
0	10568	185.3	162.41489079408
0	10575	185.4	162.41489079408
0	10582	185.5	162.41489079408
0	10589	185.6	162.41489079408
0	10596	185.7	162.41489079408
0	10603	185.8	162.41489079408
0	10610	185.9	162.41489079408
0	10617	186	162.41489079408
0	10624	186.1	163.3751835705
0	10631	186.2	163.3751835705
0	10638	186.3	163.3751835705
0	10645	186.4	163.3751835705
0	10652	186.5	163.3751835705
0	10659	186.6	163.3751835705
0	10666	186.7	163.3751835705
0	10673	186.8	163.3751835705
0	10680	186.9	163.3751835705
0	10687	187	163.3751835705
0	10694	187.1	164.33547634691
0	10701	187.2	164.33547634691
0	10708	187.3	164.33547634691
0	10715	187.4	164.33547634691
0	10722	187.5	164.33547634691
0	10729	187.6	164.33547634691
0	10736	187.7	164.33547634691
0	10743	187.8	164.33547634691
0	10750	187.9	164.33547634691
0	10757	188	164.33547634691
0	10764	188.1	165.29576912333
0	10771	188.2	165.29576912333
0	10778	188.3	165.29576912333
0	10785	188.4	165.29576912333
0	10792	188.5	165.29576912333
0	10799	188.6	165.29576912333
0	10806	188.7	165.29576912333
0	10813	188.8	165.29576912333
0	10820	188.9	165.29576912333
0	10827	189	165.29576912333
0	10834	189.1	166.25606189974
0	10841	189.2	166.25606189974
0	10848	189.3	166.25606189974
0	10855	189.4	166.25606189974
0	10862	189.5	166.25606189974
0	10869	189.6	166.25606189974
0	10876	189.7	166.25606189974
0	10883	189.8	166.25606189974
0	10890	189.9	166.25606189974
0	10897	190	166.25606189974
0	10904	190.1	167.21635467616
0	10911	190.2	167.21635467616
0	10918	190.3	167.21635467616
0	10925	190.4	167.21635467616
0	10932	190.5	167.21635467616
0	10939	190.6	167.21635467616
0	10946	190.7	167.21635467616
0	10953	190.8	167.21635467616
0	10960	190.9	167.21635467616
0	10967	191	167.21635467616
0	10974	191.1	168.17664745257
0	10981	191.2	168.17664745257
0	10988	191.3	168.17664745257
0	10995	191.4	168.17664745257
0	11002	191.5	168.17664745257
0	11009	191.6	168.17664745257
0	11016	191.7	168.17664745257
0	11023	191.8	168.17664745257
0	11030	191.9	168.17664745257
0	11037	192	168.17664745257
0	11044	192.1	169.13694022899
0	11051	192.2	169.13694022899
0	11058	192.3	169.13694022899
0	11065	192.4	169.13694022899
0	11072	192.5	169.13694022899
0	11079	192.6	169.13694022899
0	11086	192.7	169.13694022899
0	11093	192.8	169.13694022899
0	11100	192.9	169.13694022899
0	11107	193	169.13694022899
0	11114	193.1	170.0972330054
0	11121	193.2	170.0972330054
0	11128	193.3	170.0972330054
0	11135	193.4	170.0972330054
0	11142	193.5	170.0972330054
0	11149	193.6	170.0972330054
0	11156	193.7	170.0972330054
0	11163	193.8	170.0972330054
0	11170	193.9	170.0972330054
0	11177	194	170.0972330054
0	11184	194.1	171.05752578181
0	11191	194.2	171.05752578181
0	11198	194.3	171.05752578181
0	11205	194.4	171.05752578181
0	11212	194.5	171.05752578181
0	11219	194.6	171.05752578181
0	11226	194.7	171.05752578181
0	11233	194.8	171.05752578181
0	11240	194.9	171.05752578181
0	11247	195	171.05752578181
0	11254	195.1	172.01781855823
0	11261	195.2	172.01781855823
0	11268	195.3	172.01781855823
0	11275	195.4	172.01781855823
0	11282	195.5	172.01781855823
0	11289	195.6	172.01781855823
0	11296	195.7	172.01781855823
0	11303	195.8	172.01781855823
0	11310	195.9	172.01781855823
0	11317	196	172.01781855823
0	11324	196.1	172.97811133464
0	11331	196.2	172.97811133464
0	11338	196.3	172.97811133464
0	11345	196.4	172.97811133464
0	11352	196.5	172.97811133464
0	11359	196.6	172.97811133464
0	11366	196.7	172.97811133464
0	11373	196.8	172.97811133464
0	11380	196.9	172.97811133464
0	11387	197	172.97811133464
0	11394	197.1	173.93840411106
0	11401	197.2	173.93840411106
0	11408	197.3	173.93840411106
0	11415	197.4	173.93840411106
0	11422	197.5	173.93840411106
0	11429	197.6	173.93840411106
0	11436	197.7	173.93840411106
0	11443	197.8	173.93840411106
0	11450	197.9	173.93840411106
0	11457	198	173.93840411106
0	11464	198.1	174.89869688747
0	11471	198.2	174.89869688747
0	11478	198.3	174.89869688747
0	11485	198.4	174.89869688747
0	11492	198.5	174.89869688747
0	11499	198.6	174.89869688747
0	11506	198.7	174.89869688747
0	11513	198.8	174.89869688747
0	11520	198.9	174.89869688747
0	11527	199	174.89869688747
0	11534	199.1	175.8536198333
0	11541	199.2	175.8536198333
0	11548	199.3	175.8536198333
0	11555	199.4	175.8536198333
0	11562	199.5	175.8536198333
0	11569	199.6	175.8536198333
0	11576	199.7	175.8536198333
0	11583	199.8	175.8536198333
0	11590	199.9	175.8536198333
0	11597	200	175.8536198333
0	11604	200.1	176.80065619186
0	11611	200.2	176.80065619186
0	11618	200.3	176.80065619186
0	11625	200.4	176.80065619186
0	11632	200.5	176.80065619186
0	11639	200.6	176.80065619186
0	11646	200.7	176.80065619186
0	11653	200.8	176.80065619186
0	11660	200.9	176.80065619186
0	11667	201	176.80065619186
0	11674	201.1	177.74769255042
0	11681	201.2	177.74769255042
0	11688	201.3	177.74769255042
0	11695	201.4	177.74769255042
0	11702	201.5	177.74769255042
0	11709	201.6	177.74769255042
0	11716	201.7	177.74769255042
0	11723	201.8	177.74769255042
0	11730	201.9	177.74769255042
0	11737	202	177.74769255042
0	11744	202.1	178.69472890898
0	11751	202.2	178.69472890898
0	11758	202.3	178.69472890898
0	11765	202.4	178.69472890898
0	11772	202.5	178.69472890898
0	11779	202.6	178.69472890898
0	11786	202.7	178.69472890898
0	11793	202.8	178.69472890898
0	11800	202.9	178.69472890898
0	11807	203	178.69472890898
0	11814	203.1	179.64176526754
0	11821	203.2	179.64176526754
0	11828	203.3	179.64176526754
0	11835	203.4	179.64176526754
0	11842	203.5	179.64176526754
0	11849	203.6	179.64176526754
0	11856	203.7	179.64176526754
0	11863	203.8	179.64176526754
0	11870	203.9	179.64176526754
0	11877	204	179.64176526754
0	11884	204.1	180.5888016261
0	11891	204.2	180.5888016261
0	11898	204.3	180.5888016261
0	11905	204.4	180.5888016261
0	11912	204.5	180.5888016261
0	11919	204.6	180.5888016261
0	11926	204.7	180.5888016261
0	11933	204.8	180.5888016261
0	11940	204.9	180.5888016261
0	11947	205	180.5888016261
0	11954	205.1	181.53583798466
0	11961	205.2	181.53583798466
0	11968	205.3	181.53583798466
0	11975	205.4	181.53583798466
0	11982	205.5	181.53583798466
0	11989	205.6	181.53583798466
0	11996	205.7	181.53583798466
0	12003	205.8	181.53583798466
0	12010	205.9	181.53583798466
0	12017	206	181.53583798466
0	12024	206.1	182.48287434322
0	12031	206.2	182.48287434322
0	12038	206.3	182.48287434322
0	12045	206.4	182.48287434322
0	12052	206.5	182.48287434322
0	12059	206.6	182.48287434322
0	12066	206.7	182.48287434322
0	12073	206.8	182.48287434322
0	12080	206.9	182.48287434322
0	12087	207	182.48287434322
0	12094	207.1	183.42991070178
0	12101	207.2	183.42991070178
0	12108	207.3	183.42991070178
0	12115	207.4	183.42991070178
0	12122	207.5	183.42991070178
0	12129	207.6	183.42991070178
0	12136	207.7	183.42991070178
0	12143	207.8	183.42991070178
0	12150	207.9	183.42991070178
0	12157	208	183.42991070178
0	12164	208.1	184.37694706034
0	12171	208.2	184.37694706034
0	12178	208.3	184.37694706034
0	12185	208.4	184.37694706034
0	12192	208.5	184.37694706034
0	12199	208.6	184.37694706034
0	12206	208.7	184.37694706034
0	12213	208.8	184.37694706034
0	12220	208.9	184.37694706034
0	12227	209	184.37694706034
0	12234	209.1	185.3239834189
0	12241	209.2	185.3239834189
0	12248	209.3	185.3239834189
0	12255	209.4	185.3239834189
0	12262	209.5	185.3239834189
0	12269	209.6	185.3239834189
0	12276	209.7	185.3239834189
0	12283	209.8	185.3239834189
0	12290	209.9	185.3239834189
0	12297	210	185.3239834189
0	12304	210.1	186.27101977746
0	12311	210.2	186.27101977746
0	12318	210.3	186.27101977746
0	12325	210.4	186.27101977746
0	12332	210.5	186.27101977746
0	12339	210.6	186.27101977746
0	12346	210.7	186.27101977746
0	12353	210.8	186.27101977746
0	12360	210.9	186.27101977746
0	12367	211	186.27101977746
0	12374	211.1	187.21805613602
0	12381	211.2	187.21805613602
0	12388	211.3	187.21805613602
0	12395	211.4	187.21805613602
0	12402	211.5	187.21805613602
0	12409	211.6	187.21805613602
0	12416	211.7	187.21805613602
0	12423	211.8	187.21805613602
0	12430	211.9	187.21805613602
0	12437	212	187.21805613602
0	12444	212.1	188.16509249459
0	12451	212.2	188.16509249459
0	12458	212.3	188.16509249459
0	12465	212.4	188.16509249459
0	12472	212.5	188.16509249459
0	12479	212.6	188.16509249459
0	12486	212.7	188.16509249459
0	12493	212.8	188.16509249459
0	12500	212.9	188.16509249459
0	12507	213	188.16509249459
0	12514	213.1	189.11212885315
0	12521	213.2	189.11212885315
0	12528	213.3	189.11212885315
0	12535	213.4	189.11212885315
0	12542	213.5	189.11212885315
0	12549	213.6	189.11212885315
0	12556	213.7	189.11212885315
0	12563	213.8	189.11212885315
0	12570	213.9	189.11212885315
0	12577	214	189.11212885315
0	12584	214.1	190.05916521171
0	12591	214.2	190.05916521171
0	12598	214.3	190.05916521171
0	12605	214.4	190.05916521171
0	12612	214.5	190.05916521171
0	12619	214.6	190.05916521171
0	12626	214.7	190.05916521171
0	12633	214.8	190.05916521171
0	12640	214.9	190.05916521171
0	12647	215	190.05916521171
0	12654	215.1	191.00620157027
0	12661	215.2	191.00620157027
0	12668	215.3	191.00620157027
0	12675	215.4	191.00620157027
0	12682	215.5	191.00620157027
0	12689	215.6	191.00620157027
0	12696	215.7	191.00620157027
0	12703	215.8	191.00620157027
0	12710	215.9	191.00620157027
0	12717	216	191.00620157027
0	12724	216.1	191.95323792883
0	12731	216.2	191.95323792883
0	12738	216.3	191.95323792883
0	12745	216.4	191.95323792883
0	12752	216.5	191.95323792883
0	12759	216.6	191.95323792883
0	12766	216.7	191.95323792883
0	12773	216.8	191.95323792883
0	12780	216.9	191.95323792883
0	12787	217	191.95323792883
0	12794	217.1	192.90027428739
0	12801	217.2	192.90027428739
0	12808	217.3	192.90027428739
0	12815	217.4	192.90027428739
0	12822	217.5	192.90027428739
0	12829	217.6	192.90027428739
0	12836	217.7	192.90027428739
0	12843	217.8	192.90027428739
0	12850	217.9	192.90027428739
0	12857	218	192.90027428739
0	12864	218.1	193.84731064595
0	12871	218.2	193.84731064595
0	12878	218.3	193.84731064595
0	12885	218.4	193.84731064595
0	12892	218.5	193.84731064595
0	12899	218.6	193.84731064595
0	12906	218.7	193.84731064595
0	12913	218.8	193.84731064595
0	12920	218.9	193.84731064595
0	12927	219	193.84731064595
0	12934	219.1	194.79434700451
0	12941	219.2	194.79434700451
0	12948	219.3	194.79434700451
0	12955	219.4	194.79434700451
0	12962	219.5	194.79434700451
0	12969	219.6	194.79434700451
0	12976	219.7	194.79434700451
0	12983	219.8	194.79434700451
0	12990	219.9	194.79434700451
0	12997	220	194.79434700451
0	13004	220.1	195.74138336307
0	13011	220.2	195.74138336307
0	13018	220.3	195.74138336307
0	13025	220.4	195.74138336307
0	13032	220.5	195.74138336307
0	13039	220.6	195.74138336307
0	13046	220.7	195.74138336307
0	13053	220.8	195.74138336307
0	13060	220.9	195.74138336307
0	13067	221	195.74138336307
0	13074	221.1	196.68841972163
0	13081	221.2	196.68841972163
0	13088	221.3	196.68841972163
0	13095	221.4	196.68841972163
0	13102	221.5	196.68841972163
0	13109	221.6	196.68841972163
0	13116	221.7	196.68841972163
0	13123	221.8	196.68841972163
0	13130	221.9	196.68841972163
0	13137	222	196.68841972163
0	13144	222.1	197.63545608019
0	13151	222.2	197.63545608019
0	13158	222.3	197.63545608019
0	13165	222.4	197.63545608019
0	13172	222.5	197.63545608019
0	13179	222.6	197.63545608019
0	13186	222.7	197.63545608019
0	13193	222.8	197.63545608019
0	13200	222.9	197.63545608019
0	13207	223	197.63545608019
0	13214	223.1	198.58249243875
0	13221	223.2	198.58249243875
0	13228	223.3	198.58249243875
0	13235	223.4	198.58249243875
0	13242	223.5	198.58249243875
0	13249	223.6	198.58249243875
0	13256	223.7	198.58249243875
0	13263	223.8	198.58249243875
0	13270	223.9	198.58249243875
0	13277	224	198.58249243875
0	13284	224.1	199.52952879731
0	13291	224.2	199.52952879731
0	13298	224.3	199.52952879731
0	13305	224.4	199.52952879731
0	13312	224.5	199.52952879731
0	13319	224.6	199.52952879731
0	13326	224.7	199.52952879731
0	13333	224.8	199.52952879731
0	13340	224.9	199.52952879731
0	13347	225	199.52952879731
0	13354	225.1	200.47656515587
0	13361	225.2	200.47656515587
0	13368	225.3	200.47656515587
0	13375	225.4	200.47656515587
0	13382	225.5	200.47656515587
0	13389	225.6	200.47656515587
0	13396	225.7	200.47656515587
0	13403	225.8	200.47656515587
0	13410	225.9	200.47656515587
0	13417	226	200.47656515587
0	13424	226.1	201.42360151443
0	13431	226.2	201.42360151443
0	13438	226.3	201.42360151443
0	13445	226.4	201.42360151443
0	13452	226.5	201.42360151443
0	13459	226.6	201.42360151443
0	13466	226.7	201.42360151443
0	13473	226.8	201.42360151443
0	13480	226.9	201.42360151443
0	13487	227	201.42360151443
0	13494	227.1	202.37063787299
0	13501	227.2	202.37063787299
0	13508	227.3	202.37063787299
0	13515	227.4	202.37063787299
0	13522	227.5	202.37063787299
0	13529	227.6	202.37063787299
0	13536	227.7	202.37063787299
0	13543	227.8	202.37063787299
0	13550	227.9	202.37063787299
0	13557	228	202.37063787299
0	13564	228.1	203.31767423155
0	13571	228.2	203.31767423155
0	13578	228.3	203.31767423155
0	13585	228.4	203.31767423155
0	13592	228.5	203.31767423155
0	13599	228.6	203.31767423155
0	13606	228.7	203.31767423155
0	13613	228.8	203.31767423155
0	13620	228.9	203.31767423155
0	13627	229	203.31767423155
0	13634	229.1	204.26471059011
0	13641	229.2	204.26471059011
0	13648	229.3	204.26471059011
0	13655	229.4	204.26471059011
0	13662	229.5	204.26471059011
0	13669	229.6	204.26471059011
0	13676	229.7	204.26471059011
0	13683	229.8	204.26471059011
0	13690	229.9	204.26471059011
0	13697	230	204.26471059011
0	13704	230.1	205.21174694867
0	13711	230.2	205.21174694867
0	13718	230.3	205.21174694867
0	13725	230.4	205.21174694867
0	13732	230.5	205.21174694867
0	13739	230.6	205.21174694867
0	13746	230.7	205.21174694867
0	13753	230.8	205.21174694867
0	13760	230.9	205.21174694867
0	13767	231	205.21174694867
0	13774	231.1	206.15878330724
0	13781	231.2	206.15878330724
0	13788	231.3	206.15878330724
0	13795	231.4	206.15878330724
0	13802	231.5	206.15878330724
0	13809	231.6	206.15878330724
0	13816	231.7	206.15878330724
0	13823	231.8	206.15878330724
0	13830	231.9	206.15878330724
0	13837	232	206.15878330724
0	13844	232.1	207.1058196658
0	13851	232.2	207.1058196658
0	13858	232.3	207.1058196658
0	13865	232.4	207.1058196658
0	13872	232.5	207.1058196658
0	13879	232.6	207.1058196658
0	13886	232.7	207.1058196658
0	13893	232.8	207.1058196658
0	13900	232.9	207.1058196658
0	13907	233	207.1058196658
0	13914	233.1	208.05285602436
0	13921	233.2	208.05285602436
0	13928	233.3	208.05285602436
0	13935	233.4	208.05285602436
0	13942	233.5	208.05285602436
0	13949	233.6	208.05285602436
0	13956	233.7	208.05285602436
0	13963	233.8	208.05285602436
0	13970	233.9	208.05285602436
0	13977	234	208.05285602436
0	13984	234.1	208.99989238292
0	13991	234.2	208.99989238292
0	13998	234.3	208.99989238292
0	14005	234.4	208.99989238292
0	14012	234.5	208.99989238292
0	14019	234.6	208.99989238292
0	14026	234.7	208.99989238292
0	14033	234.8	208.99989238292
0	14040	234.9	208.99989238292
0	14047	235	208.99989238292
0	14054	235.1	209.94692874148
0	14061	235.2	209.94692874148
0	14068	235.3	209.94692874148
0	14075	235.4	209.94692874148
0	14082	235.5	209.94692874148
0	14089	235.6	209.94692874148
0	14096	235.7	209.94692874148
0	14103	235.8	209.94692874148
0	14110	235.9	209.94692874148
0	14117	236	209.94692874148
0	14124	236.1	210.89396510004
0	14131	236.2	210.89396510004
0	14138	236.3	210.89396510004
0	14145	236.4	210.89396510004
0	14152	236.5	210.89396510004
0	14159	236.6	210.89396510004
0	14166	236.7	210.89396510004
0	14173	236.8	210.89396510004
0	14180	236.9	210.89396510004
0	14187	237	210.89396510004
0	14194	237.1	211.8410014586
0	14201	237.2	211.8410014586
0	14208	237.3	211.8410014586
0	14215	237.4	211.8410014586
0	14222	237.5	211.8410014586
0	14229	237.6	211.8410014586
0	14236	237.7	211.8410014586
0	14243	237.8	211.8410014586
0	14250	237.9	211.8410014586
0	14257	238	211.8410014586
0	14264	238.1	212.78803781716
0	14271	238.2	212.78803781716
0	14278	238.3	212.78803781716
0	14285	238.4	212.78803781716
0	14292	238.5	212.78803781716
0	14299	238.6	212.78803781716
0	14306	238.7	212.78803781716
0	14313	238.8	212.78803781716
0	14320	238.9	212.78803781716
0	14327	239	212.78803781716
0	14334	239.1	213.73507417572
0	14341	239.2	213.73507417572
0	14348	239.3	213.73507417572
0	14355	239.4	213.73507417572
0	14362	239.5	213.73507417572
0	14369	239.6	213.73507417572
0	14376	239.7	213.73507417572
0	14383	239.8	213.73507417572
0	14390	239.9	213.73507417572
0	14397	240	213.73507417572
0	14404	240.1	214.68211053428
0	14411	240.2	214.68211053428
0	14418	240.3	214.68211053428
0	14425	240.4	214.68211053428
0	14432	240.5	214.68211053428
0	14439	240.6	214.68211053428
0	14446	240.7	214.68211053428
0	14453	240.8	214.68211053428
0	14460	240.9	214.68211053428
0	14467	241	214.68211053428
0	14474	241.1	215.62914689284
0	14481	241.2	215.62914689284
0	14488	241.3	215.62914689284
0	14495	241.4	215.62914689284
0	14502	241.5	215.62914689284
0	14509	241.6	215.62914689284
0	14516	241.7	215.62914689284
0	14523	241.8	215.62914689284
0	14530	241.9	215.62914689284
0	14537	242	215.62914689284
0	14544	242.1	216.5761832514
0	14551	242.2	216.5761832514
0	14558	242.3	216.5761832514
0	14565	242.4	216.5761832514
0	14572	242.5	216.5761832514
0	14579	242.6	216.5761832514
0	14586	242.7	216.5761832514
0	14593	242.8	216.5761832514
0	14600	242.9	216.5761832514
0	14607	243	216.5761832514
0	14614	243.1	217.52321960996
0	14621	243.2	217.52321960996
0	14628	243.3	217.52321960996
0	14635	243.4	217.52321960996
0	14642	243.5	217.52321960996
0	14649	243.6	217.52321960996
0	14656	243.7	217.52321960996
0	14663	243.8	217.52321960996
0	14670	243.9	217.52321960996
0	14677	244	217.52321960996
0	14684	244.1	218.47025596852
0	14691	244.2	218.47025596852
0	14698	244.3	218.47025596852
0	14705	244.4	218.47025596852
0	14712	244.5	218.47025596852
0	14719	244.6	218.47025596852
0	14726	244.7	218.47025596852
0	14733	244.8	218.47025596852
0	14740	244.9	218.47025596852
0	14747	245	218.47025596852
0	14754	245.1	219.41729232708
0	14761	245.2	219.41729232708
0	14768	245.3	219.41729232708
0	14775	245.4	219.41729232708
0	14782	245.5	219.41729232708
0	14789	245.6	219.41729232708
0	14796	245.7	219.41729232708
0	14803	245.8	219.41729232708
0	14810	245.9	219.41729232708
0	14817	246	219.41729232708
0	14824	246.1	220.36432868564
0	14831	246.2	220.36432868564
0	14838	246.3	220.36432868564
0	14845	246.4	220.36432868564
0	14852	246.5	220.36432868564
0	14859	246.6	220.36432868564
0	14866	246.7	220.36432868564
0	14873	246.8	220.36432868564
0	14880	246.9	220.36432868564
0	14887	247	220.36432868564
0	14894	247.1	221.3113650442
0	14901	247.2	221.3113650442
0	14908	247.3	221.3113650442
0	14915	247.4	221.3113650442
0	14922	247.5	221.3113650442
0	14929	247.6	221.3113650442
0	14936	247.7	221.3113650442
0	14943	247.8	221.3113650442
0	14950	247.9	221.3113650442
0	14957	248	221.3113650442
0	14964	248.1	222.25840140276
0	14971	248.2	222.25840140276
0	14978	248.3	222.25840140276
0	14985	248.4	222.25840140276
0	14992	248.5	222.25840140276
0	14999	248.6	222.25840140276
0	15006	248.7	222.25840140276
0	15013	248.8	222.25840140276
0	15020	248.9	222.25840140276
0	15027	249	222.25840140276
0	15034	249.1	223.20543776133
0	15041	249.2	223.20543776133
0	15048	249.3	223.20543776133
0	15055	249.4	223.20543776133
0	15062	249.5	223.20543776133
0	15069	249.6	223.20543776133
0	15076	249.7	223.20543776133
0	15083	249.8	223.20543776133
0	15090	249.9	223.20543776133
0	15097	250	223.20543776133
0	15104	250.1	224.15247411989
0	15111	250.2	224.15247411989
0	15118	250.3	224.15247411989
0	15125	250.4	224.15247411989
0	15132	250.5	224.15247411989
0	15139	250.6	224.15247411989
0	15146	250.7	224.15247411989
0	15153	250.8	224.15247411989
0	15160	250.9	224.15247411989
0	15167	251	224.15247411989
0	15174	251.1	225.09951047845
0	15181	251.2	225.09951047845
0	15188	251.3	225.09951047845
0	15195	251.4	225.09951047845
0	15202	251.5	225.09951047845
0	15209	251.6	225.09951047845
0	15216	251.7	225.09951047845
0	15223	251.8	225.09951047845
0	15230	251.9	225.09951047845
0	15237	252	225.09951047845
0	15244	252.1	226.04654683701
0	15251	252.2	226.04654683701
0	15258	252.3	226.04654683701
0	15265	252.4	226.04654683701
0	15272	252.5	226.04654683701
0	15279	252.6	226.04654683701
0	15286	252.7	226.04654683701
0	15293	252.8	226.04654683701
0	15300	252.9	226.04654683701
0	15307	253	226.04654683701
0	15314	253.1	226.99358319557
0	15321	253.2	226.99358319557
0	15328	253.3	226.99358319557
0	15335	253.4	226.99358319557
0	15342	253.5	226.99358319557
0	15349	253.6	226.99358319557
0	15356	253.7	226.99358319557
0	15363	253.8	226.99358319557
0	15370	253.9	226.99358319557
0	15377	254	226.99358319557
0	15384	254.1	227.94061955413
0	15391	254.2	227.94061955413
0	15398	254.3	227.94061955413
0	15405	254.4	227.94061955413
0	15412	254.5	227.94061955413
0	15419	254.6	227.94061955413
0	15426	254.7	227.94061955413
0	15433	254.8	227.94061955413
0	15440	254.9	227.94061955413
0	15447	255	227.94061955413
0	15454	255.1	228.88765591269
0	15461	255.2	228.88765591269
0	15468	255.3	228.88765591269
0	15475	255.4	228.88765591269
0	15482	255.5	228.88765591269
0	15489	255.6	228.88765591269
0	15496	255.7	228.88765591269
0	15503	255.8	228.88765591269
0	15510	255.9	228.88765591269
0	15517	256	228.88765591269
0	15524	256.1	229.83469227125
0	15531	256.2	229.83469227125
0	15538	256.3	229.83469227125
0	15545	256.4	229.83469227125
0	15552	256.5	229.83469227125
0	15559	256.6	229.83469227125
0	15566	256.7	229.83469227125
0	15573	256.8	229.83469227125
0	15580	256.9	229.83469227125
0	15587	257	229.83469227125
0	15594	257.1	230.78172862981
0	15601	257.2	230.78172862981
0	15608	257.3	230.78172862981
0	15615	257.4	230.78172862981
0	15622	257.5	230.78172862981
0	15629	257.6	230.78172862981
0	15636	257.7	230.78172862981
0	15643	257.8	230.78172862981
0	15650	257.9	230.78172862981
0	15657	258	230.78172862981
0	15664	258.1	231.72876498837
0	15671	258.2	231.72876498837
0	15678	258.3	231.72876498837
0	15685	258.4	231.72876498837
0	15692	258.5	231.72876498837
0	15699	258.6	231.72876498837
0	15706	258.7	231.72876498837
0	15713	258.8	231.72876498837
0	15720	258.9	231.72876498837
0	15727	259	231.72876498837
0	15734	259.1	232.67580134693
0	15741	259.2	232.67580134693
0	15748	259.3	232.67580134693
0	15755	259.4	232.67580134693
0	15762	259.5	232.67580134693
0	15769	259.6	232.67580134693
0	15776	259.7	232.67580134693
0	15783	259.8	232.67580134693
0	15790	259.9	232.67580134693
0	15797	260	232.67580134693
0	15804	260.1	233.62283770549
0	15811	260.2	233.62283770549
0	15818	260.3	233.62283770549
0	15825	260.4	233.62283770549
0	15832	260.5	233.62283770549
0	15839	260.6	233.62283770549
0	15846	260.7	233.62283770549
0	15853	260.8	233.62283770549
0	15860	260.9	233.62283770549
0	15867	261	233.62283770549
0	15874	261.1	234.56987406405
0	15881	261.2	234.56987406405
0	15888	261.3	234.56987406405
0	15895	261.4	234.56987406405
0	15902	261.5	234.56987406405
0	15909	261.6	234.56987406405
0	15916	261.7	234.56987406405
0	15923	261.8	234.56987406405
0	15930	261.9	234.56987406405
0	15937	262	234.56987406405
0	15944	262.1	235.51691042261
0	15951	262.2	235.51691042261
0	15958	262.3	235.51691042261
0	15965	262.4	235.51691042261
0	15972	262.5	235.51691042261
0	15979	262.6	235.51691042261
0	15986	262.7	235.51691042261
0	15993	262.8	235.51691042261
0	16000	262.9	235.51691042261
0	16007	263	235.51691042261
0	16014	263.1	236.46394678117
0	16021	263.2	236.46394678117
0	16028	263.3	236.46394678117
0	16035	263.4	236.46394678117
0	16042	263.5	236.46394678117
0	16049	263.6	236.46394678117
0	16056	263.7	236.46394678117
0	16063	263.8	236.46394678117
0	16070	263.9	236.46394678117
0	16077	264	236.46394678117
0	16084	264.1	237.41098313973
0	16091	264.2	237.41098313973
0	16098	264.3	237.41098313973
0	16105	264.4	237.41098313973
0	16112	264.5	237.41098313973
0	16119	264.6	237.41098313973
0	16126	264.7	237.41098313973
0	16133	264.8	237.41098313973
0	16140	264.9	237.41098313973
0	16147	265	237.41098313973
0	16154	265.1	238.35801949829
0	16161	265.2	238.35801949829
0	16168	265.3	238.35801949829
0	16175	265.4	238.35801949829
0	16182	265.5	238.35801949829
0	16189	265.6	238.35801949829
0	16196	265.7	238.35801949829
0	16203	265.8	238.35801949829
0	16210	265.9	238.35801949829
0	16217	266	238.35801949829
0	16224	266.1	239.30505585685
0	16231	266.2	239.30505585685
0	16238	266.3	239.30505585685
0	16245	266.4	239.30505585685
0	16252	266.5	239.30505585685
0	16259	266.6	239.30505585685
0	16266	266.7	239.30505585685
[...]
14	16273	266.8	1.15833237888
14	16280	266.9	1.15833237888
14	16287	267	1.15833237888
14	16294	267.1	1.15833237888
14	16301	267.2	1.15833237888
14	16308	267.3	1.15833237888
14	16315	267.4	1.15833237888
14	16322	267.5	1.15833237888
14	16329	267.6	1.15833237888
14	16336	267.7	1.15833237888
14	16343	267.8	1.15833237888
14	16350	267.9	1.15833237888
14	16357	268	1.15833237888
14	16364	268.1	1.15833237888
14	16371	268.2	1.15833237888
14	16378	268.3	1.15833237888
14	16385	268.4	1.15833237888
14	16392	268.5	1.15833237888
14	16399	268.6	1.15833237888
14	16406	268.7	1.15833237888
14	16413	268.8	1.15833237888
14	16420	268.9	1.15833237888
14	16427	269	1.15833237888
14	16434	269.1	1.15833237888
14	16441	269.2	1.15833237888
14	16448	269.3	1.15833237888
14	16455	269.4	1.15833237888
14	16462	269.5	1.15833237888
14	16469	269.6	1.15833237888
14	16476	269.7	1.15833237888
14	16483	269.8	1.15833237888
14	16490	269.9	1.15833237888
14	16497	270	1.15833237888
14	16504	270.1	1.15833237888
14	16511	270.2	1.15833237888
14	16518	270.3	1.15833237888
14	16525	270.4	1.15833237888
14	16532	270.5	1.15833237888
14	16539	270.6	1.15833237888
14	16546	270.7	1.15833237888
14	16553	270.8	1.15833237888
14	16560	270.9	1.15833237888
14	16567	271	1.15833237888
14	16574	271.1	1.15833237888
14	16581	271.2	1.15833237888
14	16588	271.3	1.15833237888
14	16595	271.4	1.15833237888
14	16602	271.5	1.15833237888
14	16609	271.6	1.15833237888
14	16616	271.7	1.15833237888
14	16623	271.8	1.15833237888
14	16630	271.9	1.15833237888
14	16637	272	1.15833237888
14	16644	272.1	1.15833237888
14	16651	272.2	1.15833237888
14	16658	272.3	1.15833237888
14	16665	272.4	1.15833237888
14	16672	272.5	1.15833237888
14	16679	272.6	1.15833237888
14	16686	272.7	1.15833237888
14	16693	272.8	1.15833237888
14	16700	272.9	1.15833237888
14	16707	273	1.15833237888
14	16714	273.1	1.15833237888
14	16721	273.2	1.15833237888
14	16728	273.3	1.15833237888
14	16735	273.4	1.15833237888
14	16742	273.5	1.15833237888
14	16749	273.6	1.15833237888
14	16756	273.7	1.15833237888
14	16763	273.8	1.15833237888
14	16770	273.9	1.15833237888
14	16777	274	1.15833237888
14	16784	274.1	1.15833237888
14	16791	274.2	1.15833237888
14	16798	274.3	1.15833237888
14	16805	274.4	1.15833237888
14	16812	274.5	1.15833237888
14	16819	274.6	1.15833237888
14	16826	274.7	1.15833237888
14	16833	274.8	1.15833237888
14	16840	274.9	1.15833237888
14	16847	275	1.15833237888
14	16854	275.1	1.15833237888
14	16861	275.2	1.15833237888
14	16868	275.3	1.15833237888
14	16875	275.4	1.15833237888
14	16882	275.5	1.15833237888
14	16889	275.6	1.15833237888
14	16896	275.7	1.15833237888
14	16903	275.8	1.15833237888
14	16910	275.9	1.15833237888
14	16917	276	1.15833237888
14	16924	276.1	1.15833237888
14	16931	276.2	1.15833237888
14	16938	276.3	1.15833237888
14	16945	276.4	1.15833237888
14	16952	276.5	1.15833237888
14	16959	276.6	1.15833237888
14	16966	276.7	1.15833237888
14	16973	276.8	1.15833237888
14	16980	276.9	1.15833237888
14	16987	277	1.15833237888
14	16994	277.1	1.15833237888
14	17001	277.2	1.15833237888
14	17008	277.3	1.15833237888
14	17015	277.4	1.15833237888
14	17022	277.5	1.15833237888
14	17029	277.6	1.15833237888
14	17036	277.7	1.15833237888
14	17043	277.8	1.15833237888
14	17050	277.9	1.15833237888
14	17057	278	1.15833237888
14	17064	278.1	1.15833237888
14	17071	278.2	1.15833237888
14	17078	278.3	1.15833237888
14	17085	278.4	1.15833237888
14	17092	278.5	1.15833237888
14	17099	278.6	1.15833237888
14	17106	278.7	1.15833237888
14	17113	278.8	1.15833237888
14	17120	278.9	1.15833237888
14	17127	279	1.15833237888
14	17134	279.1	1.15833237888
14	17141	279.2	1.15833237888
14	17148	279.3	1.15833237888
14	17155	279.4	1.15833237888
14	17162	279.5	1.15833237888
14	17169	279.6	1.15833237888
14	17176	279.7	1.15833237888
14	17183	279.8	1.15833237888
14	17190	279.9	1.15833237888
14	17197	280	1.15833237888
14	17204	280.1	1.15833237888
14	17211	280.2	1.15833237888
14	17218	280.3	1.15833237888
14	17225	280.4	1.15833237888
14	17232	280.5	1.15833237888
14	17239	280.6	1.15833237888
14	17246	280.7	1.15833237888
14	17253	280.8	1.15833237888
14	17260	280.9	1.15833237888
14	17267	281	1.15833237888
14	17274	281.1	1.15833237888
14	17281	281.2	1.15833237888
14	17288	281.3	1.15833237888
14	17295	281.4	1.15833237888
14	17302	281.5	1.15833237888
14	17309	281.6	1.15833237888
14	17316	281.7	1.15833237888
14	17323	281.8	1.15833237888
14	17330	281.9	1.15833237888
14	17337	282	1.15833237888
14	17344	282.1	1.15833237888
14	17351	282.2	1.15833237888
14	17358	282.3	1.15833237888
14	17365	282.4	1.15833237888
14	17372	282.5	1.15833237888
14	17379	282.6	1.15833237888
14	17386	282.7	1.15833237888
14	17393	282.8	1.15833237888
14	17400	282.9	1.15833237888
14	17407	283	1.15833237888
14	17414	283.1	1.15833237888
14	17421	283.2	1.15833237888
14	17428	283.3	1.15833237888
14	17435	283.4	1.15833237888
14	17442	283.5	1.15833237888
14	17449	283.6	1.15833237888
14	17456	283.7	1.15833237888
14	17463	283.8	1.15833237888
14	17470	283.9	1.15833237888
14	17477	284	1.15833237888
14	17484	284.1	1.15833237888
14	17491	284.2	1.15833237888
14	17498	284.3	1.15833237888
14	17505	284.4	1.15833237888
14	17512	284.5	1.15833237888
14	17519	284.6	1.15833237888
14	17526	284.7	1.15833237888
14	17533	284.8	1.15833237888
14	17540	284.9	1.15833237888
14	17547	285	1.15833237888
14	17554	285.1	1.15833237888
14	17561	285.2	1.15833237888
14	17568	285.3	1.15833237888
14	17575	285.4	1.15833237888
14	17582	285.5	1.15833237888
14	17589	285.6	1.15833237888
14	17596	285.7	1.15833237888
14	17603	285.8	1.15833237888
14	17610	285.9	1.15833237888
14	17617	286	1.15833237888
14	17624	286.1	1.15833237888
14	17631	286.2	1.15833237888
14	17638	286.3	1.15833237888
14	17645	286.4	1.15833237888
14	17652	286.5	1.15833237888
14	17659	286.6	1.15833237888
14	17666	286.7	1.15833237888
14	17673	286.8	1.15833237888
14	17680	286.9	1.15833237888
14	17687	287	1.15833237888
14	17694	287.1	1.15833237888
14	17701	287.2	1.15833237888
14	17708	287.3	1.15833237888
14	17715	287.4	1.15833237888
14	17722	287.5	1.15833237888
14	17729	287.6	1.15833237888
14	17736	287.7	1.15833237888
14	17743	287.8	1.15833237888
14	17750	287.9	1.15833237888
14	17757	288	1.15833237888
14	17764	288.1	1.15833237888
14	17771	288.2	1.15833237888
14	17778	288.3	1.15833237888
14	17785	288.4	1.15833237888
14	17792	288.5	1.15833237888
14	17799	288.6	1.15833237888
14	17806	288.7	1.15833237888
14	17813	288.8	1.15833237888
14	17820	288.9	1.15833237888
14	17827	289	1.15833237888
14	17834	289.1	1.15833237888
14	17841	289.2	1.15833237888
14	17848	289.3	1.15833237888
14	17855	289.4	1.15833237888
14	17862	289.5	1.15833237888
14	17869	289.6	1.15833237888
14	17876	289.7	1.15833237888
14	17883	289.8	1.15833237888
14	17890	289.9	1.15833237888
14	17897	290	1.15833237888
14	17904	290.1	1.15833237888
14	17911	290.2	1.15833237888
14	17918	290.3	1.15833237888
14	17925	290.4	1.15833237888
14	17932	290.5	1.15833237888
14	17939	290.6	1.15833237888
14	17946	290.7	1.15833237888
14	17953	290.8	1.15833237888
14	17960	290.9	1.15833237888
14	17967	291	1.15833237888
14	17974	291.1	1.15833237888
14	17981	291.2	1.15833237888
14	17988	291.3	1.15833237888
14	17995	291.4	1.15833237888
14	18002	291.5	1.15833237888
14	18009	291.6	1.15833237888
14	18016	291.7	1.15833237888
14	18023	291.8	1.15833237888
14	18030	291.9	1.15833237888
14	18037	292	1.15833237888
14	18044	292.1	1.15833237888
14	18051	292.2	1.15833237888
14	18058	292.3	1.15833237888
14	18065	292.4	1.15833237888
14	18072	292.5	1.15833237888
14	18079	292.6	1.15833237888
14	18086	292.7	1.15833237888
14	18093	292.8	1.15833237888
14	18100	292.9	1.15833237888
14	18107	293	1.15833237888
14	18114	293.1	1.15833237888
14	18121	293.2	1.15833237888
14	18128	293.3	1.15833237888
14	18135	293.4	1.15833237888
14	18142	293.5	1.15833237888
14	18149	293.6	1.15833237888
14	18156	293.7	1.15833237888
14	18163	293.8	1.15833237888
14	18170	293.9	1.15833237888
14	18177	294	1.15833237888
14	18184	294.1	1.15833237888
14	18191	294.2	1.15833237888
14	18198	294.3	1.15833237888
14	18205	294.4	1.15833237888
14	18212	294.5	1.15833237888
14	18219	294.6	1.15833237888
14	18226	294.7	1.15833237888
14	18233	294.8	1.15833237888
14	18240	294.9	1.15833237888
14	18247	295	1.15833237888
14	18254	295.1	1.15833237888
14	18261	295.2	1.15833237888
14	18268	295.3	1.15833237888
14	18275	295.4	1.15833237888
14	18282	295.5	1.15833237888
14	18289	295.6	1.15833237888
14	18296	295.7	1.15833237888
14	18303	295.8	1.15833237888
14	18310	295.9	1.15833237888
14	18317	296	1.15833237888
14	18324	296.1	1.15833237888
14	18331	296.2	1.15833237888
14	18338	296.3	1.15833237888
14	18345	296.4	1.15833237888
14	18352	296.5	1.15833237888
14	18359	296.6	1.15833237888
14	18366	296.7	1.15833237888
14	18373	296.8	1.15833237888
14	18380	296.9	1.15833237888
14	18387	297	1.15833237888
14	18394	297.1	1.15833237888
14	18401	297.2	1.15833237888
14	18408	297.3	1.15833237888
14	18415	297.4	1.15833237888
14	18422	297.5	1.15833237888
14	18429	297.6	1.15833237888
14	18436	297.7	1.15833237888
14	18443	297.8	1.15833237888
14	18450	297.9	1.15833237888
14	18457	298	1.15833237888
14	18464	298.1	1.15833237888
14	18471	298.2	1.15833237888
14	18478	298.3	1.15833237888
14	18485	298.4	1.15833237888
14	18492	298.5	1.15833237888
14	18499	298.6	1.15833237888
14	18506	298.7	1.15833237888
14	18513	298.8	1.15833237888
14	18520	298.9	1.15833237888
14	18527	299	1.15833237888
14	18534	299.1	1.15833237888
14	18541	299.2	1.15833237888
14	18548	299.3	1.15833237888
14	18555	299.4	1.15833237888
14	18562	299.5	1.15833237888
14	18569	299.6	1.15833237888
14	18576	299.7	1.15833237888
14	18583	299.8	1.15833237888
14	18590	299.9	1.15833237888
14	18597	300	1.15833237888
14	18604	300.1	1.15833237888
14	18611	300.2	1.15833237888
14	18618	300.3	1.15833237888
14	18625	300.4	1.15833237888
14	18632	300.5	1.15833237888
14	18639	300.6	1.15833237888
14	18646	300.7	1.15833237888
14	18653	300.8	1.15833237888
14	18660	300.9	1.15833237888
14	18667	301	1.15833237888
14	18674	301.1	1.15833237888
14	18681	301.2	1.15833237888
14	18688	301.3	1.15833237888
14	18695	301.4	1.15833237888
14	18702	301.5	1.15833237888
14	18709	301.6	1.15833237888
14	18716	301.7	1.15833237888
14	18723	301.8	1.15833237888
14	18730	301.9	1.15833237888
14	18737	302	1.15833237888
14	18744	302.1	1.15833237888
14	18751	302.2	1.15833237888
14	18758	302.3	1.15833237888
14	18765	302.4	1.15833237888
14	18772	302.5	1.15833237888
14	18779	302.6	1.15833237888
14	18786	302.7	1.15833237888
14	18793	302.8	1.15833237888
14	18800	302.9	1.15833237888
14	18807	303	1.15833237888
14	18814	303.1	1.15833237888
14	18821	303.2	1.15833237888
14	18828	303.3	1.15833237888
14	18835	303.4	1.15833237888
14	18842	303.5	1.15833237888
14	18849	303.6	1.15833237888
14	18856	303.7	1.15833237888
14	18863	303.8	1.15833237888
14	18870	303.9	1.15833237888
14	18877	304	1.15833237888
14	18884	304.1	1.15833237888
14	18891	304.2	1.15833237888
14	18898	304.3	1.15833237888
14	18905	304.4	1.15833237888
14	18912	304.5	1.15833237888
14	18919	304.6	1.15833237888
14	18926	304.7	1.15833237888
14	18933	304.8	1.15833237888
14	18940	304.9	1.15833237888
14	18947	305	1.15833237888
14	18954	305.1	1.15833237888
14	18961	305.2	1.15833237888
14	18968	305.3	1.15833237888
14	18975	305.4	1.15833237888
14	18982	305.5	1.15833237888
14	18989	305.6	1.15833237888
14	18996	305.7	1.15833237888
14	19003	305.8	1.15833237888
14	19010	305.9	1.15833237888
14	19017	306	1.15833237888
14	19024	306.1	1.15833237888
14	19031	306.2	1.15833237888
14	19038	306.3	1.15833237888
14	19045	306.4	1.15833237888
14	19052	306.5	1.15833237888
14	19059	306.6	1.15833237888
14	19066	306.7	1.15833237888
14	19073	306.8	1.15833237888
14	19080	306.9	1.15833237888
14	19087	307	1.15833237888
14	19094	307.1	1.15833237888
14	19101	307.2	1.15833237888
14	19108	307.3	1.15833237888
14	19115	307.4	1.15833237888
14	19122	307.5	1.15833237888
14	19129	307.6	1.15833237888
14	19136	307.7	1.15833237888
14	19143	307.8	1.15833237888
14	19150	307.9	1.15833237888
14	19157	308	1.15833237888
14	19164	308.1	1.15833237888
14	19171	308.2	1.15833237888
14	19178	308.3	1.15833237888
14	19185	308.4	1.15833237888
14	19192	308.5	1.15833237888
14	19199	308.6	1.15833237888
14	19206	308.7	1.15833237888
14	19213	308.8	1.15833237888
14	19220	308.9	1.15833237888
14	19227	309	1.15833237888
14	19234	309.1	1.15833237888
14	19241	309.2	1.15833237888
14	19248	309.3	1.15833237888
14	19255	309.4	1.15833237888
14	19262	309.5	1.15833237888
14	19269	309.6	1.15833237888
14	19276	309.7	1.15833237888
14	19283	309.8	1.15833237888
14	19290	309.9	1.15833237888
14	19297	310	1.15833237888
14	19304	310.1	1.15833237888
14	19311	310.2	1.15833237888
14	19318	310.3	1.15833237888
14	19325	310.4	1.15833237888
14	19332	310.5	1.15833237888
14	19339	310.6	1.15833237888
14	19346	310.7	1.15833237888
14	19353	310.8	1.15833237888
14	19360	310.9	1.15833237888
14	19367	311	1.15833237888
14	19374	311.1	1.15833237888
14	19381	311.2	1.15833237888
14	19388	311.3	1.15833237888
14	19395	311.4	1.15833237888
14	19402	311.5	1.15833237888
14	19409	311.6	1.15833237888
14	19416	311.7	1.15833237888
14	19423	311.8	1.15833237888
14	19430	311.9	1.15833237888
14	19437	312	1.15833237888
14	19444	312.1	1.15833237888
14	19451	312.2	1.15833237888
14	19458	312.3	1.15833237888
14	19465	312.4	1.15833237888
14	19472	312.5	1.15833237888
14	19479	312.6	1.15833237888
14	19486	312.7	1.15833237888
14	19493	312.8	1.15833237888
14	19500	312.9	1.15833237888
14	19507	313	1.15833237888
14	19514	313.1	1.15833237888
14	19521	313.2	1.15833237888
14	19528	313.3	1.15833237888
14	19535	313.4	1.15833237888
14	19542	313.5	1.15833237888
14	19549	313.6	1.15833237888
14	19556	313.7	1.15833237888
14	19563	313.8	1.15833237888
14	19570	313.9	1.15833237888
14	19577	314	1.15833237888
14	19584	314.1	1.15833237888
14	19591	314.2	1.15833237888
14	19598	314.3	1.15833237888
14	19605	314.4	1.15833237888
14	19612	314.5	1.15833237888
14	19619	314.6	1.15833237888
14	19626	314.7	1.15833237888
14	19633	314.8	1.15833237888
14	19640	314.9	1.15833237888
14	19647	315	1.15833237888
14	19654	315.1	1.15833237888
14	19661	315.2	1.15833237888
14	19668	315.3	1.15833237888
14	19675	315.4	1.15833237888
14	19682	315.5	1.15833237888
14	19689	315.6	1.15833237888
14	19696	315.7	1.15833237888
14	19703	315.8	1.15833237888
14	19710	315.9	1.15833237888
14	19717	316	1.15833237888
14	19724	316.1	1.15833237888
14	19731	316.2	1.15833237888
14	19738	316.3	1.15833237888
14	19745	316.4	1.15833237888
14	19752	316.5	1.15833237888
14	19759	316.6	1.15833237888
14	19766	316.7	1.15833237888
14	19773	316.8	1.15833237888
14	19780	316.9	1.15833237888
14	19787	317	1.15833237888
14	19794	317.1	1.15833237888
14	19801	317.2	1.15833237888
14	19808	317.3	1.15833237888
14	19815	317.4	1.15833237888
14	19822	317.5	1.15833237888
14	19829	317.6	1.15833237888
14	19836	317.7	1.15833237888
14	19843	317.8	1.15833237888
14	19850	317.9	1.15833237888
14	19857	318	1.15833237888
14	19864	318.1	1.15833237888
14	19871	318.2	1.15833237888
14	19878	318.3	1.15833237888
14	19885	318.4	1.15833237888
14	19892	318.5	1.15833237888
14	19899	318.6	1.15833237888
14	19906	318.7	1.15833237888
14	19913	318.8	1.15833237888
14	19920	318.9	1.15833237888
14	19927	319	1.15833237888
14	19934	319.1	1.15833237888
14	19941	319.2	1.15833237888
14	19948	319.3	1.15833237888
14	19955	319.4	1.15833237888
14	19962	319.5	1.15833237888
14	19969	319.6	1.15833237888
14	19976	319.7	1.15833237888
14	19983	319.8	1.15833237888
14	19990	319.9	1.15833237888
14	19997	320	1.15833237888
14	20004	320.1	1.15833237888
14	20011	320.2	1.15833237888
14	20018	320.3	1.15833237888
14	20025	320.4	1.15833237888
14	20032	320.5	1.15833237888
14	20039	320.6	1.15833237888
14	20046	320.7	1.15833237888
14	20053	320.8	1.15833237888
14	20060	320.9	1.15833237888
14	20067	321	1.15833237888
14	20074	321.1	1.15833237888
14	20081	321.2	1.15833237888
14	20088	321.3	1.15833237888
14	20095	321.4	1.15833237888
14	20102	321.5	1.15833237888
14	20109	321.6	1.15833237888
14	20116	321.7	1.15833237888
14	20123	321.8	1.15833237888
14	20130	321.9	1.15833237888
14	20137	322	1.15833237888
14	20144	322.1	1.15833237888
14	20151	322.2	1.15833237888
14	20158	322.3	1.15833237888
14	20165	322.4	1.15833237888
14	20172	322.5	1.15833237888
14	20179	322.6	1.15833237888
14	20186	322.7	1.15833237888
14	20193	322.8	1.15833237888
14	20200	322.9	1.15833237888
14	20207	323	1.15833237888
14	20214	323.1	1.15833237888
14	20221	323.2	1.15833237888
14	20228	323.3	1.15833237888
14	20235	323.4	1.15833237888
14	20242	323.5	1.15833237888
14	20249	323.6	1.15833237888
14	20256	323.7	1.15833237888
14	20263	323.8	1.15833237888
14	20270	323.9	1.15833237888
14	20277	324	1.15833237888
14	20284	324.1	1.15833237888
14	20291	324.2	1.15833237888
14	20298	324.3	1.15833237888
14	20305	324.4	1.15833237888
14	20312	324.5	1.15833237888
14	20319	324.6	1.15833237888
14	20326	324.7	1.15833237888
14	20333	324.8	1.15833237888
14	20340	324.9	1.15833237888
14	20347	325	1.15833237888
14	20354	325.1	1.15833237888
14	20361	325.2	1.15833237888
14	20368	325.3	1.15833237888
14	20375	325.4	1.15833237888
14	20382	325.5	1.15833237888
14	20389	325.6	1.15833237888
14	20396	325.7	1.15833237888
14	20403	325.8	1.15833237888
14	20410	325.9	1.15833237888
14	20417	326	1.15833237888
14	20424	326.1	1.15833237888
14	20431	326.2	1.15833237888
14	20438	326.3	1.15833237888
14	20445	326.4	1.15833237888
14	20452	326.5	1.15833237888
14	20459	326.6	1.15833237888
14	20466	326.7	1.15833237888
14	20473	326.8	1.15833237888
14	20480	326.9	1.15833237888
14	20487	327	1.15833237888
14	20494	327.1	1.15833237888
14	20501	327.2	1.15833237888
14	20508	327.3	1.15833237888
14	20515	327.4	1.15833237888
14	20522	327.5	1.15833237888
14	20529	327.6	1.15833237888
14	20536	327.7	1.15833237888
14	20543	327.8	1.15833237888
14	20550	327.9	1.15833237888
14	20557	328	1.15833237888
14	20564	328.1	1.15833237888
14	20571	328.2	1.15833237888
14	20578	328.3	1.15833237888
14	20585	328.4	1.15833237888
14	20592	328.5	1.15833237888
14	20599	328.6	1.15833237888
14	20606	328.7	1.15833237888
14	20613	328.8	1.15833237888
14	20620	328.9	1.15833237888
14	20627	329	1.15833237888
14	20634	329.1	1.15833237888
14	20641	329.2	1.15833237888
14	20648	329.3	1.15833237888
14	20655	329.4	1.15833237888
14	20662	329.5	1.15833237888
14	20669	329.6	1.15833237888
14	20676	329.7	1.15833237888
14	20683	329.8	1.15833237888
14	20690	329.9	1.15833237888
14	20697	330	1.15833237888
14	20704	330.1	1.15833237888
14	20711	330.2	1.15833237888
14	20718	330.3	1.15833237888
14	20725	330.4	1.15833237888
14	20732	330.5	1.15833237888
14	20739	330.6	1.15833237888
14	20746	330.7	1.15833237888
14	20753	330.8	1.15833237888
14	20760	330.9	1.15833237888
14	20767	331	1.15833237888
14	20774	331.1	1.15833237888
14	20781	331.2	1.15833237888
14	20788	331.3	1.15833237888
14	20795	331.4	1.15833237888
14	20802	331.5	1.15833237888
14	20809	331.6	1.15833237888
14	20816	331.7	1.15833237888
14	20823	331.8	1.15833237888
14	20830	331.9	1.15833237888
14	20837	332	1.15833237888
14	20844	332.1	1.15833237888
14	20851	332.2	1.15833237888
14	20858	332.3	1.15833237888
14	20865	332.4	1.15833237888
14	20872	332.5	1.15833237888
14	20879	332.6	1.15833237888
14	20886	332.7	1.15833237888
14	20893	332.8	1.15833237888
14	20900	332.9	1.15833237888
14	20907	333	1.15833237888
14	20914	333.1	1.15833237888
14	20921	333.2	1.15833237888
14	20928	333.3	1.15833237888
14	20935	333.4	1.15833237888
14	20942	333.5	1.15833237888
14	20949	333.6	1.15833237888
14	20956	333.7	1.15833237888
14	20963	333.8	1.15833237888
14	20970	333.9	1.15833237888
14	20977	334	1.15833237888
14	20984	334.1	1.15833237888
14	20991	334.2	1.15833237888
14	20998	334.3	1.15833237888
14	21005	334.4	1.15833237888
14	21012	334.5	1.15833237888
14	21019	334.6	1.15833237888
14	21026	334.7	1.15833237888
14	21033	334.8	1.15833237888
14	21040	334.9	1.15833237888
14	21047	335	1.15833237888
14	21054	335.1	1.15833237888
14	21061	335.2	1.15833237888
14	21068	335.3	1.15833237888
14	21075	335.4	1.15833237888
14	21082	335.5	1.15833237888
14	21089	335.6	1.15833237888
14	21096	335.7	1.15833237888
14	21103	335.8	1.15833237888
14	21110	335.9	1.15833237888
14	21117	336	1.15833237888
14	21124	336.1	1.15833237888

