version 2
run Cenario3-0-20241207-17:11:37-18818
attr configname Cenario3
attr datetime 20241207-17:11:37
attr experiment Cenario3
attr inifile icarqoc.ini
attr iterationvars ""
attr iterationvarsf ""
attr measurement ""
attr network org.car2x.veins.modules.application.icarnew.IcarScenario
attr processid 18818
attr repetition 0
attr replication #0
attr resultdir results
attr runnumber 0
attr seedset 0
param *.manager.launchConfig "xmldoc(\"./cenario3.launchd.xml\")"
param *.playgroundSizeX 10500m
param *.playgroundSizeY 10500m
param *.playgroundSizeZ 50m
param *.node[*].applType "\"Icarqoc\""
param *.node[*].appl.maxSpeedRoute0 41.67
param *.node[*].appl.maxSpeedRoute1 41.67
param *.node[*].appl.integratedScenario false
param *.icarParameters.vehicleAmount 100
param *.icarParameters.simulationDataheaderLine true
param *.icarParameters.appTypeId 100
param *.icarParameters.deliveryDelay 5
param *.icarParameters.traceChangedMobility true
param *.icarParameters.timeToLive 2s
param *.icarParameters.loadPeriodApp 0
param *.icarParameters.perforMesurementPeriod 1
param *.icarParameters.mobilityPeriod 0
param *.icarParameters.observation "\"default\""
param *.icarParameters.lostMessageRate 0
param *.icarParameters.monitorPeriod 0.5
param **.debug false
param **.coreDebug false
param *.playgroundSizeX 6000m
param *.playgroundSizeY 6000m
param *.playgroundSizeZ 50m
param *.annotations.draw true
param *.obstacles.debug false
param *.obstacles.obstacles "xmldoc(\"config.xml\", \"//AnalogueModel[@type='SimpleObstacleShadowing']/obstacles\")"
param *.manager.updateInterval 0.1s
param *.manager.host "\"localhost\""
param *.manager.port 9999
param *.manager.autoShutdown true
param *.manager.launchConfig "xmldoc(\"simOppositeDirection.launchd.xml\")"
param *.connectionManager.sendDirect true
param *.connectionManager.maxInterfDist 2600m
param *.connectionManager.drawMaxIntfDist false
param *.**.nic.mac1609_4.useServiceChannel true
param *.**.nic.mac1609_4.txPower 5mW
param *.**.nic.mac1609_4.bitrate 6Mbps
param *.**.nic.phy80211p.minPowerLevel -89dBm
param *.**.nic.phy80211p.useNoiseFloor false
param *.**.nic.phy80211p.noiseFloor -86dBm
param *.**.nic.phy80211p.decider "xmldoc(\"simCrossing.config.xml\")"
param *.**.nic.phy80211p.analogueModels "xmldoc(\"simCrossing.config.xml\")"
param *.**.nic.phy80211p.usePropagationDelay true
param *.node[*].nic.phy80211p.antennaOffsetY "0 m"
param *.node[*].nic.phy80211p.antennaOffsetZ "1.895 m"
param *.**.nic.phy80211p.antenna "xml(\"<root><Antenna type=\\\"IsotropicAntenna\\\" id=\\\"default_isotropic\\\"></Antenna></root>\")"
param *.node[*].applType "\"TraCIDemo11p\""
param *.node[*].appl.headerLength "80 bit"
param *.node[*].appl.sendBeacons false
param *.node[*].appl.dataOnSch false
param *.node[*].appl.beaconInterval 1s
param *.node[*].veinsmobilityType.debug true
param *.node[*].veinsmobility.x 0
param *.node[*].veinsmobility.y 0
param *.node[*].veinsmobility.z 1.895
param *.node[*0].veinsmobility.accidentCount 1
param *.node[*0].veinsmobility.accidentStart 75s
param *.node[*0].veinsmobility.accidentDuration 50s

vector 0 IcarScenario.node[0].veinsmobility posx ETV
vector 1 IcarScenario.node[0].veinsmobility posy ETV
vector 2 IcarScenario.node[1].veinsmobility posx ETV
vector 3 IcarScenario.node[1].veinsmobility posy ETV
vector 4 IcarScenario.node[0].veinsmobility speed ETV
vector 5 IcarScenario.node[1].veinsmobility speed ETV
vector 6 IcarScenario.node[0].veinsmobility acceleration ETV
vector 7 IcarScenario.node[0].veinsmobility co2emission ETV
vector 8 IcarScenario.node[1].veinsmobility acceleration ETV
vector 9 IcarScenario.node[1].veinsmobility co2emission ETV
vector 10 IcarScenario.node[2].veinsmobility posx ETV
vector 11 IcarScenario.node[2].veinsmobility posy ETV
vector 12 IcarScenario.node[3].veinsmobility posx ETV
vector 13 IcarScenario.node[3].veinsmobility posy ETV
vector 14 IcarScenario.node[2].veinsmobility speed ETV
vector 15 IcarScenario.node[3].veinsmobility speed ETV
vector 16 IcarScenario.node[2].veinsmobility acceleration ETV
vector 17 IcarScenario.node[2].veinsmobility co2emission ETV
vector 18 IcarScenario.node[3].veinsmobility acceleration ETV
vector 19 IcarScenario.node[3].veinsmobility co2emission ETV
vector 20 IcarScenario.node[4].veinsmobility posx ETV
vector 21 IcarScenario.node[4].veinsmobility posy ETV
vector 22 IcarScenario.node[5].veinsmobility posx ETV
vector 23 IcarScenario.node[5].veinsmobility posy ETV
vector 24 IcarScenario.node[4].veinsmobility speed ETV
vector 25 IcarScenario.node[5].veinsmobility speed ETV
vector 26 IcarScenario.node[4].veinsmobility acceleration ETV
vector 27 IcarScenario.node[4].veinsmobility co2emission ETV
vector 28 IcarScenario.node[5].veinsmobility acceleration ETV
vector 29 IcarScenario.node[5].veinsmobility co2emission ETV
17	168	3.3	0.973
17	177	3.4	0.973
17	186	3.5	0.973
17	197	3.6	0.973
17	206	3.7	0.973
17	215	3.8	0.973
17	224	3.9	0.973
17	233	4	0.973
17	242	4.1	9.221289926387
17	251	4.2	1.1985766368342
17	260	4.3	1.1985766368342
17	269	4.4	1.1985766368342
17	278	4.5	1.1985766368342
17	287	4.6	1.1985766368342
17	296	4.7	1.1985766368342
17	305	4.8	1.1985766368342
17	314	4.9	1.1985766368342
17	323	5	1.1985766368342
17	332	5.1	18.350309787416
17	341	5.2	1.2944491958504
17	350	5.3	1.2944491958504
17	359	5.4	1.2944491958504
17	368	5.5	1.2944491958504
17	377	5.6	1.2944491958504
17	386	5.7	1.2944491958504
17	395	5.8	1.2944491958504
17	404	5.9	1.2944491958504
17	413	6	1.2944491958504
17	422	6.1	25.482247894593
17	431	6.2	1.3924825777632
17	440	6.3	1.3924825777632
17	449	6.4	1.3924825777632
17	458	6.5	1.3924825777632
17	467	6.6	1.3924825777632
17	476	6.7	1.3924825777632
17	485	6.8	1.3924825777632
17	494	6.9	1.3924825777632
17	503	7	1.3924825777632
17	512	7.1	37.79896108514
17	523	7.2	1.5127485594897
17	536	7.3	1.5127485594897
17	549	7.4	1.5127485594897
17	562	7.5	1.5127485594897
17	577	7.6	1.5127485594897
17	590	7.7	1.5127485594897
17	603	7.8	1.5127485594897
17	616	7.9	1.5127485594897
17	629	8	1.5127485594897
17	642	8.1	42.524071952164
17	655	8.2	1.6362792714187
17	668	8.3	1.6362792714187
17	681	8.4	1.6362792714187
17	694	8.5	1.6362792714187
17	707	8.6	1.6362792714187
17	720	8.7	1.6362792714187
17	733	8.8	1.6362792714187
17	746	8.9	1.6362792714187
17	759	9	1.6362792714187
17	772	9.1	50.517561898268
17	785	9.2	1.7766465268162
17	798	9.3	1.7766465268162
17	811	9.4	1.7766465268162
17	824	9.5	1.7766465268162
17	837	9.6	1.7766465268162
17	850	9.7	1.7766465268162
17	863	9.8	1.7766465268162
17	876	9.9	1.7766465268162
17	889	10	1.7766465268162
17	902	10.1	62.893632573309
17	915	10.2	1.9487067404792
17	928	10.3	1.9487067404792
17	941	10.4	1.9487067404792
17	954	10.5	1.9487067404792
17	967	10.6	1.9487067404792
17	980	10.7	1.9487067404792
17	993	10.8	1.9487067404792
17	1006	10.9	1.9487067404792
17	1019	11	1.9487067404792
17	1032	11.1	73.201368631869
17	1045	11.2	2.1508568819869
17	1058	11.3	2.1508568819869
17	1071	11.4	2.1508568819869
17	1084	11.5	2.1508568819869
17	1097	11.6	2.1508568819869
17	1110	11.7	2.1508568819869
17	1123	11.8	2.1508568819869
17	1136	11.9	2.1508568819869
17	1149	12	2.1508568819869
17	1162	12.1	31.769434443345
17	1175	12.2	2.239359207664
17	1188	12.3	2.239359207664
17	1201	12.4	2.239359207664
17	1214	12.5	2.239359207664
17	1227	12.6	2.239359207664
17	1240	12.7	2.239359207664
17	1253	12.8	2.239359207664
17	1266	12.9	2.239359207664
17	1279	13	2.239359207664
17	1292	13.1	4.5175247010048
17	1305	13.2	2.2463541853456
17	1318	13.3	2.2463541853456
17	1331	13.4	2.2463541853456
17	1344	13.5	2.2463541853456
17	1357	13.6	2.2463541853456
17	1370	13.7	2.2463541853456
17	1383	13.8	2.2463541853456
17	1396	13.9	2.2463541853456
17	1409	14	2.2463541853456
17	1422	14.1	0.973
17	1435	14.2	2.2393287691913
17	1448	14.3	2.2393287691913
17	1461	14.4	2.2393287691913
17	1474	14.5	2.2393287691913
17	1487	14.6	2.2393287691913
17	1500	14.7	2.2393287691913
17	1513	14.8	2.2393287691913
17	1526	14.9	2.2393287691913
17	1539	15	2.2393287691913
17	1552	15.1	4.2501916967383
17	1565	15.2	2.2455040880606
17	1578	15.3	2.2455040880606
17	1591	15.4	2.2455040880606
17	1604	15.5	2.2455040880606
17	1617	15.6	2.2455040880606
17	1630	15.7	2.2455040880606
17	1643	15.8	2.2455040880606
17	1656	15.9	2.2455040880606
17	1669	16	2.2455040880606
17	1682	16.1	6.8276528502289
17	1695	16.2	2.2595607918475
17	1708	16.3	2.2595607918475
17	1721	16.4	2.2595607918475
17	1734	16.5	2.2595607918475
17	1747	16.6	2.2595607918475
17	1760	16.7	2.2595607918475
17	1773	16.8	2.2595607918475
17	1786	16.9	2.2595607918475
17	1799	17	2.2595607918475
17	1812	17.1	1.6916223273532
17	1825	17.2	2.2578101978863
17	1838	17.3	2.2578101978863
17	1851	17.4	2.2578101978863
17	1864	17.5	2.2578101978863
17	1877	17.6	2.2578101978863
17	1890	17.7	2.2578101978863
17	1903	17.8	2.2578101978863
17	1916	17.9	2.2578101978863
17	1929	18	2.2578101978863
17	1942	18.1	2.7330157415526
17	1955	18.2	2.2592737018389
17	1968	18.3	2.2592737018389
17	1981	18.4	2.2592737018389
17	1994	18.5	2.2592737018389
17	2007	18.6	2.2592737018389
17	2020	18.7	2.2592737018389
17	2033	18.8	2.2592737018389
17	2046	18.9	2.2592737018389
17	2059	19	2.2592737018389
17	2072	19.1	0.973
17	2085	19.2	2.2397928924102
17	2098	19.3	2.2397928924102
17	2111	19.4	2.2397928924102
17	2124	19.5	2.2397928924102
17	2137	19.6	2.2397928924102
17	2150	19.7	2.2397928924102
17	2163	19.8	2.2397928924102
17	2176	19.9	2.2397928924102
17	2189	20	2.2397928924102
17	2202	20.1	4.2620712127774
17	2215	20.2	2.2460035048972
17	2228	20.3	2.2460035048972
17	2241	20.4	2.2460035048972
17	2254	20.5	2.2460035048972
17	2267	20.6	2.2460035048972
17	2280	20.7	2.2460035048972
17	2293	20.8	2.2460035048972
17	2306	20.9	2.2460035048972
17	2319	21	2.2460035048972
17	2332	21.1	1.4474730459902
17	2345	21.2	2.2435450236927
17	2358	21.3	2.2435450236927
17	2371	21.4	2.2435450236927
17	2384	21.5	2.2435450236927
17	2397	21.6	2.2435450236927
17	2410	21.7	2.2435450236927
17	2423	21.8	2.2435450236927
17	2436	21.9	2.2435450236927
17	2449	22	2.2435450236927
17	2462	22.1	3.5894799793938
17	2475	22.2	2.2476819081686
17	2488	22.3	2.2476819081686
17	2501	22.4	2.2476819081686
17	2514	22.5	2.2476819081686
17	2527	22.6	2.2476819081686
17	2540	22.7	2.2476819081686
17	2553	22.8	2.2476819081686
17	2566	22.9	2.2476819081686
17	2579	23	2.2476819081686
17	2592	23.1	1.182145394764
17	2605	23.2	2.2444002606787
17	2618	23.3	2.2444002606787
17	2631	23.4	2.2444002606787
17	2644	23.5	2.2444002606787
17	2657	23.6	2.2444002606787
17	2670	23.7	2.2444002606787
17	2683	23.8	2.2444002606787
17	2696	23.9	2.2444002606787
17	2709	24	2.2444002606787
17	2722	24.1	0.973
17	2735	24.2	2.2375972347546
17	2748	24.3	2.2375972347546
17	2761	24.4	2.2375972347546
17	2774	24.5	2.2375972347546
17	2787	24.6	2.2375972347546
17	2800	24.7	2.2375972347546
17	2813	24.8	2.2375972347546
17	2826	24.9	2.2375972347546
17	2839	25	2.2375972347546
17	2852	25.1	3.0799230798406
17	2865	25.2	2.2401855856117
17	2878	25.3	2.2401855856117
17	2891	25.4	2.2401855856117
17	2904	25.5	2.2401855856117
17	2917	25.6	2.2401855856117
17	2930	25.7	2.2401855856117
17	2943	25.8	2.2401855856117
17	2956	25.9	2.2401855856117
17	2969	26	2.2401855856117
17	2982	26.1	4.2882447766414
17	2995	26.2	2.24647550976
17	3008	26.3	2.24647550976
17	3021	26.4	2.24647550976
17	3034	26.5	2.24647550976
17	3047	26.6	2.24647550976
17	3060	26.7	2.24647550976
17	3073	26.8	2.24647550976
17	3086	26.9	2.24647550976
17	3099	27	2.24647550976
17	3112	27.1	1.4816485855426
17	3125	27.2	2.2441207395369
17	3138	27.3	2.2441207395369
17	3151	27.4	2.2441207395369
17	3164	27.5	2.2441207395369
17	3177	27.6	2.2441207395369
17	3190	27.7	2.2441207395369
17	3203	27.8	2.2441207395369
17	3216	27.9	2.2441207395369
17	3229	28	2.2441207395369
17	3242	28.1	4.0611158732404
17	3255	28.2	2.2497040564394
17	3268	28.3	2.2497040564394
17	3281	28.4	2.2497040564394
17	3294	28.5	2.2497040564394
17	3307	28.6	2.2497040564394
17	3320	28.7	2.2497040564394
17	3333	28.8	2.2497040564394
17	3346	28.9	2.2497040564394
17	3359	29	2.2497040564394
17	3372	29.1	0.973
17	3385	29.2	2.2400484335123
17	3398	29.3	2.2400484335123
17	3411	29.4	2.2400484335123
17	3424	29.5	2.2400484335123
17	3437	29.6	2.2400484335123
17	3450	29.7	2.2400484335123
17	3463	29.8	2.2400484335123
17	3476	29.9	2.2400484335123
17	3489	30	2.2400484335123
17	3502	30.1	0.973
17	3515	30.2	1.9717312186012
17	3528	30.3	1.9717312186012
17	3541	30.4	1.9717312186012
17	3554	30.5	1.9717312186012
17	3567	30.6	1.9717312186012
17	3580	30.7	1.9717312186012
17	3593	30.8	1.9717312186012
17	3606	30.9	1.9717312186012
17	3619	31	1.9717312186012
17	3632	31.1	0.973
17	3645	31.2	1.5741500914614
17	3658	31.3	1.5741500914614
17	3671	31.4	1.5741500914614
17	3684	31.5	1.5741500914614
17	3697	31.6	1.5741500914614
17	3710	31.7	1.5741500914614
17	3723	31.8	1.5741500914614
17	3736	31.9	1.5741500914614
17	3749	32	1.5741500914614
17	3762	32.1	47.049387920812
17	3775	32.2	1.7070367651423
17	3788	32.3	1.7070367651423
17	3801	32.4	1.7070367651423
17	3814	32.5	1.7070367651423
17	3827	32.6	1.7070367651423
17	3840	32.7	1.7070367651423
17	3853	32.8	1.7070367651423
17	3866	32.9	1.7070367651423
17	3879	33	1.7070367651423
17	3892	33.1	58.049616818305
17	3905	33.2	1.8663370121287
17	3918	33.3	1.8663370121287
17	3931	33.4	1.8663370121287
17	3944	33.5	1.8663370121287
17	3957	33.6	1.8663370121287
17	3970	33.7	1.8663370121287
17	3983	33.8	1.8663370121287
17	3996	33.9	1.8663370121287
17	4009	34	1.8663370121287
17	4022	34.1	65.751906294506
17	4035	34.2	2.0469034620598
17	4048	34.3	2.0469034620598
17	4061	34.4	2.0469034620598
17	4074	34.5	2.0469034620598
17	4087	34.6	2.0469034620598
17	4100	34.7	2.0469034620598
17	4113	34.8	2.0469034620598
17	4126	34.9	2.0469034620598
17	4139	35	2.0469034620598
17	4152	35.1	73.495371410438
17	4165	35.2	2.2523298791601
17	4178	35.3	2.2523298791601
17	4191	35.4	2.2523298791601
17	4204	35.5	2.2523298791601
17	4217	35.6	2.2523298791601
17	4230	35.7	2.2523298791601
17	4243	35.8	2.2523298791601
17	4256	35.9	2.2523298791601
17	4269	36	2.2523298791601
17	4282	36.1	3.198051958736
17	4295	36.2	2.2552399609824
17	4308	36.3	2.2552399609824
17	4321	36.4	2.2552399609824
17	4334	36.5	2.2552399609824
17	4347	36.6	2.2552399609824
17	4360	36.7	2.2552399609824
17	4373	36.8	2.2552399609824
17	4386	36.9	2.2552399609824
17	4399	37	2.2552399609824
17	4412	37.1	0.973
17	4425	37.2	2.2396018894166
17	4438	37.3	2.2396018894166
17	4451	37.4	2.2396018894166
17	4464	37.5	2.2396018894166
17	4477	37.6	2.2396018894166
17	4490	37.7	2.2396018894166
17	4503	37.8	2.2396018894166
17	4516	37.9	2.2396018894166
17	4529	38	2.2396018894166
17	4542	38.1	2.5412587052554
17	4555	38.2	2.240529356684
17	4568	38.3	2.240529356684
17	4581	38.4	2.240529356684
17	4594	38.5	2.240529356684
17	4607	38.6	2.240529356684
17	4620	38.7	2.240529356684
17	4633	38.8	2.240529356684
17	4646	38.9	2.240529356684
17	4659	39	2.240529356684
17	4672	39.1	4.5272418244529
17	4685	39.2	2.2475513509954
17	4698	39.3	2.2475513509954
17	4711	39.4	2.2475513509954
17	4724	39.5	2.2475513509954
17	4737	39.6	2.2475513509954
17	4750	39.7	2.2475513509954
17	4763	39.8	2.2475513509954
17	4776	39.9	2.2475513509954
17	4789	40	2.2475513509954
17	4802	40.1	0.973
17	4815	40.2	2.2430676992758
17	4828	40.3	2.2430676992758
17	4841	40.4	2.2430676992758
17	4854	40.5	2.2430676992758
17	4867	40.6	2.2430676992758
17	4880	40.7	2.2430676992758
17	4893	40.8	2.2430676992758
17	4906	40.9	2.2430676992758
17	4919	41	2.2430676992758
17	4932	41.1	7.7268952990102
17	4945	41.2	2.2598765009995
17	4958	41.3	2.2598765009995
17	4971	41.4	2.2598765009995
17	4984	41.5	2.2598765009995
17	4997	41.6	2.2598765009995
17	5010	41.7	2.2598765009995
17	5023	41.8	2.2598765009995
17	5036	41.9	2.2598765009995
17	5049	42	2.2598765009995
17	5062	42.1	0.973
17	5075	42.2	2.2437406882143
17	5088	42.3	2.2437406882143
17	5101	42.4	2.2437406882143
17	5114	42.5	2.2437406882143
17	5127	42.6	2.2437406882143
17	5140	42.7	2.2437406882143
17	5153	42.8	2.2437406882143
17	5166	42.9	2.2437406882143
17	5179	43	2.2437406882143
17	5192	43.1	3.7277779600376
17	5205	43.2	2.2483017159909
17	5218	43.3	2.2483017159909
17	5231	43.4	2.2483017159909
17	5244	43.5	2.2483017159909
17	5257	43.6	2.2483017159909
17	5270	43.7	2.2483017159909
17	5283	43.8	2.2483017159909
17	5296	43.9	2.2483017159909
17	5309	44	2.2483017159909
17	5322	44.1	0.973
17	5335	44.2	2.2369284791192
17	5348	44.3	2.2369284791192
17	5361	44.4	2.2369284791192
17	5374	44.5	2.2369284791192
17	5387	44.6	2.2369284791192
17	5400	44.7	2.2369284791192
17	5413	44.8	2.2369284791192
17	5426	44.9	2.2369284791192
17	5439	45	2.2369284791192
17	5452	45.1	3.3920980565445
17	5465	45.2	2.2404771780041
17	5478	45.3	2.2404771780041
17	5491	45.4	2.2404771780041
17	5504	45.5	2.2404771780041
17	5517	45.6	2.2404771780041
17	5530	45.7	2.2404771780041
17	5543	45.8	2.2404771780041
17	5556	45.9	2.2404771780041
17	5569	46	2.2404771780041
17	5582	46.1	5.3765551400996
17	5595	46.2	2.2501019362705
17	5608	46.3	2.2501019362705
17	5621	46.4	2.2501019362705
17	5634	46.5	2.2501019362705
17	5647	46.6	2.2501019362705
17	5660	46.7	2.2501019362705
17	5673	46.8	2.2501019362705
17	5686	46.9	2.2501019362705
17	5699	47	2.2501019362705
17	5712	47.1	2.3519178549548
17	5725	47.2	2.2504153394664
17	5738	47.3	2.2504153394664
17	5751	47.4	2.2504153394664
17	5764	47.5	2.2504153394664
17	5777	47.6	2.2504153394664
17	5790	47.7	2.2504153394664
17	5803	47.8	2.2504153394664
17	5816	47.9	2.2504153394664
17	5829	48	2.2504153394664
17	5842	48.1	3.5290892782727
17	5855	48.2	2.2543483387649
17	5868	48.3	2.2543483387649
17	5881	48.4	2.2543483387649
17	5894	48.5	2.2543483387649
17	5907	48.6	2.2543483387649
17	5920	48.7	2.2543483387649
17	5933	48.8	2.2543483387649
17	5946	48.9	2.2543483387649
17	5959	49	2.2543483387649
17	5972	49.1	0.973
17	5985	49.2	2.2432632620853
17	5998	49.3	2.2432632620853
17	6011	49.4	2.2432632620853
17	6024	49.5	2.2432632620853
17	6037	49.6	2.2432632620853
17	6050	49.7	2.2432632620853
17	6063	49.8	2.2432632620853
17	6076	49.9	2.2432632620853
17	6089	50	2.2432632620853
17	6102	50.1	2.3456024177522
17	6115	50.2	2.2435780655482
17	6128	50.3	2.2435780655482
17	6141	50.4	2.2435780655482
17	6154	50.5	2.2435780655482
17	6167	50.6	2.2435780655482
17	6180	50.7	2.2435780655482
17	6193	50.8	2.2435780655482
17	6206	50.9	2.2435780655482
17	6219	51	2.2435780655482
17	6232	51.1	0.973
17	6245	51.2	2.2374323021609
17	6258	51.3	2.2374323021609
17	6271	51.4	2.2374323021609
17	6284	51.5	2.2374323021609
17	6297	51.6	2.2374323021609
17	6310	51.7	2.2374323021609
17	6323	51.8	2.2374323021609
17	6336	51.9	2.2374323021609
17	6349	52	2.2374323021609
17	6362	52.1	7.5516355534345
17	6375	52.2	2.2537135621178
17	6388	52.3	2.2537135621178
17	6401	52.4	2.2537135621178
17	6414	52.5	2.2537135621178
17	6427	52.6	2.2537135621178
17	6440	52.7	2.2537135621178
17	6453	52.8	2.2537135621178
17	6466	52.9	2.2537135621178
17	6479	53	2.2537135621178
17	6492	53.1	0.973
17	6505	53.2	2.237854420248
17	6518	53.3	2.237854420248
17	6531	53.4	2.237854420248
17	6544	53.5	2.237854420248
17	6557	53.6	2.237854420248
17	6570	53.7	2.237854420248
17	6583	53.8	2.237854420248
17	6596	53.9	2.237854420248
17	6609	54	2.237854420248
17	6622	54.1	3.9556003522392
17	6635	54.2	2.2431298494208
17	6648	54.3	2.2431298494208
17	6661	54.4	2.2431298494208
17	6674	54.5	2.2431298494208
17	6687	54.6	2.2431298494208
17	6700	54.7	2.2431298494208
17	6713	54.8	2.2431298494208
17	6726	54.9	2.2431298494208
17	6739	55	2.2431298494208
17	6752	55.1	0.973
17	6765	55.2	2.237700227384
17	6778	55.3	2.237700227384
17	6791	55.4	2.237700227384
17	6804	55.5	2.237700227384
17	6817	55.6	2.237700227384
17	6830	55.7	2.237700227384
17	6843	55.8	2.237700227384
17	6856	55.9	2.237700227384
17	6869	56	2.237700227384
17	6882	56.1	4.4047862521932
17	6895	56.2	2.2443535439291
17	6908	56.3	2.2443535439291
17	6921	56.4	2.2443535439291
17	6934	56.5	2.2443535439291
17	6947	56.6	2.2443535439291
17	6960	56.7	2.2443535439291
17	6973	56.8	2.2443535439291
17	6986	56.9	2.2443535439291
17	6999	57	2.2443535439291
17	7012	57.1	1.7361828029067
17	7025	57.2	2.2427895640544
17	7038	57.3	2.2427895640544
17	7051	57.4	2.2427895640544
17	7064	57.5	2.2427895640544
17	7077	57.6	2.2427895640544
17	7090	57.7	2.2427895640544
17	7103	57.8	2.2427895640544
17	7116	57.9	2.2427895640544
17	7129	58	2.2427895640544
17	7142	58.1	4.2995376182652
17	7155	58.2	2.2491077651316
17	7168	58.3	2.2491077651316
17	7181	58.4	2.2491077651316
17	7194	58.5	2.2491077651316
17	7207	58.6	2.2491077651316
17	7220	58.7	2.2491077651316
17	7233	58.8	2.2491077651316
17	7246	58.9	2.2491077651316
17	7259	59	2.2491077651316
17	7272	59.1	0.973
17	7285	59.2	2.2396661071107
17	7298	59.3	2.2396661071107
17	7311	59.4	2.2396661071107
17	7324	59.5	2.2396661071107
17	7337	59.6	2.2396661071107
17	7350	59.7	2.2396661071107
17	7363	59.8	2.2396661071107
17	7376	59.9	2.2396661071107
17	7389	60	2.2396661071107
17	7402	60.1	5.9612581767014
17	7415	60.2	2.2510825078457
17	7428	60.3	2.2510825078457
17	7441	60.4	2.2510825078457
17	7454	60.5	2.2510825078457
17	7467	60.6	2.2510825078457
17	7480	60.7	2.2510825078457
17	7493	60.8	2.2510825078457
17	7506	60.9	2.2510825078457
17	7519	61	2.2510825078457
17	7532	61.1	0.973
17	7545	61.2	2.2429466622862
17	7558	61.3	2.2429466622862
17	7571	61.4	2.2429466622862
17	7584	61.5	2.2429466622862
17	7597	61.6	2.2429466622862
17	7610	61.7	2.2429466622862
17	7623	61.8	2.2429466622862
17	7636	61.9	2.2429466622862
17	7649	62	2.2429466622862
17	7662	62.1	4.6886947385399
17	7675	62.2	2.2504580350735
17	7688	62.3	2.2504580350735
17	7701	62.4	2.2504580350735
17	7714	62.5	2.2504580350735
17	7727	62.6	2.2504580350735
17	7740	62.7	2.2504580350735
17	7753	62.8	2.2504580350735
17	7766	62.9	2.2504580350735
17	7779	63	2.2504580350735
17	7792	63.1	3.4119952068909
17	7805	63.2	2.2540310302214
17	7818	63.3	2.2540310302214
17	7831	63.4	2.2540310302214
17	7844	63.5	2.2540310302214
17	7857	63.6	2.2540310302214
17	7870	63.7	2.2540310302214
17	7883	63.8	2.2540310302214
17	7896	63.9	2.2540310302214
17	7909	64	2.2540310302214
17	7922	64.1	3.4155702657394
17	7935	64.2	2.2576053042801
17	7948	64.3	2.2576053042801
17	7961	64.4	2.2576053042801
17	7974	64.5	2.2576053042801
17	7987	64.6	2.2576053042801
17	8000	64.7	2.2576053042801
17	8013	64.8	2.2576053042801
17	8026	64.9	2.2576053042801
17	8039	65	2.2576053042801
17	8052	65.1	0.973
17	8065	65.2	2.2396098101558
17	8078	65.3	2.2396098101558
17	8091	65.4	2.2396098101558
17	8104	65.5	2.2396098101558
17	8117	65.6	2.2396098101558
17	8130	65.7	2.2396098101558
17	8143	65.8	2.2396098101558
17	8156	65.9	2.2396098101558
17	8169	66	2.2396098101558
17	8182	66.1	2.931302334236
17	8195	66.2	2.2417359162378
17	8208	66.3	2.2417359162378
17	8221	66.4	2.2417359162378
17	8234	66.5	2.2417359162378
17	8247	66.6	2.2417359162378
17	8260	66.7	2.2417359162378
17	8273	66.8	2.2417359162378
17	8286	66.9	2.2417359162378
17	8299	67	2.2417359162378
17	8312	67.1	4.9866666391666
17	8325	67.2	2.2501634578187
17	8338	67.3	2.2501634578187
17	8351	67.4	2.2501634578187
17	8364	67.5	2.2501634578187
17	8377	67.6	2.2501634578187
17	8390	67.7	2.2501634578187
17	8403	67.8	2.2501634578187
17	8416	67.9	2.2501634578187
17	8429	68	2.2501634578187
17	8442	68.1	4.8052015341801
17	8455	68.2	2.2580156000132
17	8468	68.3	2.2580156000132
17	8481	68.4	2.2580156000132
17	8494	68.5	2.2580156000132
17	8507	68.6	2.2580156000132
17	8520	68.7	2.2580156000132
17	8533	68.8	2.2580156000132
17	8546	68.9	2.2580156000132
17	8559	69	2.2580156000132
17	8572	69.1	2.93127061609
17	8585	69.2	2.2600888174394
17	8598	69.3	2.2600888174394
17	8611	69.4	2.2600888174394
17	8624	69.5	2.2600888174394
17	8637	69.6	2.2600888174394
17	8650	69.7	2.2600888174394
17	8663	69.8	2.2600888174394
17	8676	69.9	2.2600888174394
17	8689	70	2.2600888174394
17	8702	70.1	1.1838250114804
17	8715	70.2	2.256770099004
17	8728	70.3	2.256770099004
17	8741	70.4	2.256770099004
17	8754	70.5	2.256770099004
17	8767	70.6	2.256770099004
17	8780	70.7	2.256770099004
17	8793	70.8	2.256770099004
17	8806	70.9	2.256770099004
17	8819	71	2.256770099004
17	8832	71.1	0.973
17	8845	71.2	2.2463108908644
17	8858	71.3	2.2463108908644
17	8871	71.4	2.2463108908644
17	8884	71.5	2.2463108908644
17	8897	71.6	2.2463108908644
17	8910	71.7	2.2463108908644
17	8923	71.8	2.2463108908644
17	8936	71.9	2.2463108908644
17	8949	72	2.2463108908644
17	8962	72.1	5.7380423086358
17	8975	72.2	2.2570309655817
17	8988	72.3	2.2570309655817
17	9001	72.4	2.2570309655817
17	9014	72.5	2.2570309655817
17	9027	72.6	2.2570309655817
17	9040	72.7	2.2570309655817
17	9053	72.8	2.2570309655817
17	9066	72.9	2.2570309655817
17	9079	73	2.2570309655817
17	9092	73.1	1.9686099158752
17	9105	73.2	2.2561423317327
17	9118	73.3	2.2561423317327
17	9131	73.4	2.2561423317327
17	9144	73.5	2.2561423317327
17	9157	73.6	2.2561423317327
17	9170	73.7	2.2561423317327
17	9183	73.8	2.2561423317327
17	9196	73.9	2.2561423317327
17	9209	74	2.2561423317327
17	9222	74.1	0.973
17	9235	74.2	2.2386303285458
17	9248	74.3	2.2386303285458
17	9261	74.4	2.2386303285458
17	9274	74.5	2.2386303285458
17	9287	74.6	2.2386303285458
17	9300	74.7	2.2386303285458
17	9313	74.8	2.2386303285458
17	9326	74.9	2.2386303285458
17	9339	75	2.2386303285458
17	9353	75.1	3.9703300971135
17	9366	75.2	2.243948967082
17	9379	75.3	2.243948967082
17	9392	75.4	2.243948967082
17	9405	75.5	2.243948967082
17	9418	75.6	2.243948967082
17	9431	75.7	2.243948967082
17	9444	75.8	2.243948967082
17	9457	75.9	2.243948967082
17	9470	76	2.243948967082
17	9483	76.1	3.4910244766132
17	9496	76.2	2.2477823998878
17	9509	76.3	2.2477823998878
17	9522	76.4	2.2477823998878
17	9535	76.5	2.2477823998878
17	9548	76.6	2.2477823998878
17	9561	76.7	2.2477823998878
17	9574	76.8	2.2477823998878
17	9587	76.9	2.2477823998878
17	9600	77	2.2477823998878
17	9613	77.1	0.973
17	9626	77.2	2.1524402387924
17	9639	77.3	2.1524402387924
17	9652	77.4	2.1524402387924
17	9665	77.5	2.1524402387924
17	9678	77.6	2.1524402387924
17	9691	77.7	2.1524402387924
17	9704	77.8	2.1524402387924
17	9717	77.9	2.1524402387924
17	9730	78	2.1524402387924
17	9743	78.1	37.094446687005
17	9756	78.2	2.256524808568
17	9769	78.3	2.256524808568
17	9782	78.4	2.256524808568
17	9795	78.5	2.256524808568
17	9808	78.6	2.256524808568
17	9821	78.7	2.256524808568
17	9834	78.8	2.256524808568
17	9847	78.9	2.256524808568
17	9860	79	2.256524808568
17	9873	79.1	0.973
17	9886	79.2	2.2459717463058
17	9899	79.3	2.2459717463058
17	9912	79.4	2.2459717463058
17	9925	79.5	2.2459717463058
17	9938	79.6	2.2459717463058
17	9951	79.7	2.2459717463058
17	9964	79.8	2.2459717463058
17	9977	79.9	2.2459717463058
17	9990	80	2.2459717463058
17	10003	80.1	0.973
17	10016	80.2	2.2383405649521
17	10029	80.3	2.2383405649521
17	10042	80.4	2.2383405649521
17	10055	80.5	2.2383405649521
17	10068	80.6	2.2383405649521
17	10081	80.7	2.2383405649521
17	10094	80.8	2.2383405649521
17	10107	80.9	2.2383405649521
17	10120	81	2.2383405649521
17	10133	81.1	3.2838266569912
17	10146	81.2	2.241552992444
17	10159	81.3	2.241552992444
17	10172	81.4	2.241552992444
17	10185	81.5	2.241552992444
17	10198	81.6	2.241552992444
17	10211	81.7	2.241552992444
17	10224	81.8	2.241552992444
17	10237	81.9	2.241552992444
17	10250	82	2.241552992444
17	10263	82.1	2.4256971279582
17	10276	82.2	2.2421193095635
17	10289	82.3	2.2421193095635
17	10302	82.4	2.2421193095635
17	10315	82.5	2.2421193095635
17	10328	82.6	2.2421193095635
17	10341	82.7	2.2421193095635
17	10354	82.8	2.2421193095635
17	10367	82.9	2.2421193095635
17	10380	83	2.2421193095635
17	10393	83.1	2.708757521901
17	10406	83.2	2.2435542162658
17	10419	83.3	2.2435542162658
17	10432	83.4	2.2435542162658
17	10445	83.5	2.2435542162658
17	10458	83.6	2.2435542162658
17	10471	83.7	2.2435542162658
17	10484	83.8	2.2435542162658
17	10497	83.9	2.2435542162658
17	10510	84	2.2435542162658
17	10523	84.1	5.2989190313579
17	10536	84.2	2.252934652395
17	10549	84.3	2.252934652395
17	10562	84.4	2.252934652395
17	10575	84.5	2.252934652395
17	10588	84.6	2.252934652395
17	10601	84.7	2.252934652395
17	10614	84.8	2.252934652395
17	10627	84.9	2.252934652395
17	10640	85	2.252934652395
17	10653	85.1	0.973
17	10666	85.2	2.243482105589
17	10679	85.3	2.243482105589
17	10692	85.4	2.243482105589
17	10705	85.5	2.243482105589
17	10718	85.6	2.243482105589
17	10731	85.7	2.243482105589
17	10744	85.8	2.243482105589
17	10757	85.9	2.243482105589
17	10770	86	2.243482105589
17	10783	86.1	5.9106475102105
17	10796	86.2	2.2547362765305
17	10809	86.3	2.2547362765305
17	10822	86.4	2.2547362765305
17	10835	86.5	2.2547362765305
17	10848	86.6	2.2547362765305
17	10861	86.7	2.2547362765305
17	10874	86.8	2.2547362765305
17	10887	86.9	2.2547362765305
17	10900	87	2.2547362765305
17	10913	87.1	2.1310077171093
17	10926	87.2	2.2543551927751
17	10939	87.3	2.2543551927751
17	10952	87.4	2.2543551927751
17	10965	87.5	2.2543551927751
17	10978	87.6	2.2543551927751
17	10991	87.7	2.2543551927751
17	11004	87.8	2.2543551927751
17	11017	87.9	2.2543551927751
17	11030	88	2.2543551927751
17	11043	88.1	0.973
17	11056	88.2	2.2451727134631
17	11069	88.3	2.2451727134631
17	11082	88.4	2.2451727134631
17	11095	88.5	2.2451727134631
17	11108	88.6	2.2451727134631
17	11121	88.7	2.2451727134631
17	11134	88.8	2.2451727134631
17	11147	88.9	2.2451727134631
17	11160	89	2.2451727134631
17	11173	89.1	6.0690214162776
17	11186	89.2	2.25690854221
17	11199	89.3	2.25690854221
17	11212	89.4	2.25690854221
17	11225	89.5	2.25690854221
17	11238	89.6	2.25690854221
17	11251	89.7	2.25690854221
17	11264	89.8	2.25690854221
17	11277	89.9	2.25690854221
17	11290	90	2.25690854221
17	11303	90.1	0.973
17	11316	90.2	2.2498645641503
17	11329	90.3	2.2498645641503
17	11342	90.4	2.2498645641503
17	11355	90.5	2.2498645641503
17	11368	90.6	2.2498645641503
17	11381	90.7	2.2498645641503
17	11394	90.8	2.2498645641503
17	11407	90.9	2.2498645641503
17	11420	91	2.2498645641503
17	11433	91.1	4.7290158997696
17	11446	91.2	2.2574836380745
17	11459	91.3	2.2574836380745
17	11472	91.4	2.2574836380745
17	11485	91.5	2.2574836380745
17	11498	91.6	2.2574836380745
17	11511	91.7	2.2574836380745
17	11524	91.8	2.2574836380745
17	11537	91.9	2.2574836380745
17	11550	92	2.2574836380745
17	11563	92.1	0.973
17	11576	92.2	2.238475698552
17	11589	92.3	2.238475698552
17	11602	92.4	2.238475698552
17	11615	92.5	2.238475698552
17	11628	92.6	2.238475698552
17	11641	92.7	2.238475698552
17	11654	92.8	2.238475698552
17	11667	92.9	2.238475698552
17	11680	93	2.238475698552
17	11693	93.1	1.7736372672032
17	11706	93.2	2.237045930666
17	11719	93.3	2.237045930666
17	11732	93.4	2.237045930666
17	11745	93.5	2.237045930666
17	11758	93.6	2.237045930666
17	11771	93.7	2.237045930666
17	11784	93.8	2.237045930666
17	11797	93.9	2.237045930666
17	11810	94	2.237045930666
17	11823	94.1	6.0123571245233
17	11836	94.2	2.2486236656511
17	11849	94.3	2.2486236656511
17	11862	94.4	2.2486236656511
17	11875	94.5	2.2486236656511
17	11888	94.6	2.2486236656511
17	11901	94.7	2.2486236656511
17	11914	94.8	2.2486236656511
17	11927	94.9	2.2486236656511
17	11940	95	2.2486236656511
17	11953	95.1	5.3285602138904
17	11966	95.2	2.2580842233564
17	11979	95.3	2.2580842233564
17	11992	95.4	2.2580842233564
17	12005	95.5	2.2580842233564
17	12018	95.6	2.2580842233564
17	12031	95.7	2.2580842233564
17	12044	95.8	2.2580842233564
17	12057	95.9	2.2580842233564
17	12070	96	2.2580842233564
17	12083	96.1	0.973
17	12096	96.2	2.2517972639645
17	12109	96.3	2.2517972639645
17	12122	96.4	2.2517972639645
17	12135	96.5	2.2517972639645
17	12148	96.6	2.2517972639645
17	12161	96.7	2.2517972639645
17	12174	96.8	2.2517972639645
17	12187	96.9	2.2517972639645
17	12200	97	2.2517972639645
17	12213	97.1	0.973
17	12226	97.2	2.2472385926326
17	12239	97.3	2.2472385926326
17	12252	97.4	2.2472385926326
17	12265	97.5	2.2472385926326
17	12278	97.6	2.2472385926326
17	12291	97.7	2.2472385926326
17	12304	97.8	2.2472385926326
17	12317	97.9	2.2472385926326
17	12330	98	2.2472385926326
17	12343	98.1	0.973
17	12356	98.2	2.2426871806932
17	12369	98.3	2.2426871806932
17	12382	98.4	2.2426871806932
17	12395	98.5	2.2426871806932
17	12408	98.6	2.2426871806932
17	12421	98.7	2.2426871806932
17	12434	98.8	2.2426871806932
17	12447	98.9	2.2426871806932
17	12460	99	2.2426871806932
17	12473	99.1	6.3265634758183
17	12486	99.2	2.2552157828149
17	12499	99.3	2.2552157828149
17	12512	99.4	2.2552157828149
17	12525	99.5	2.2552157828149
17	12538	99.6	2.2552157828149
17	12551	99.7	2.2552157828149
17	12564	99.8	2.2552157828149
17	12577	99.9	2.2552157828149
17	12590	100	2.2552157828149
17	12603	100.1	2.4654221963019
17	12616	100.2	2.2558631067502
17	12629	100.3	2.2558631067502
17	12642	100.4	2.2558631067502
17	12655	100.5	2.2558631067502
17	12668	100.6	2.2558631067502
17	12681	100.7	2.2558631067502
17	12694	100.8	2.2558631067502
17	12707	100.9	2.2558631067502
17	12720	101	2.2558631067502
17	12733	101.1	0.973
17	12746	101.2	2.241979707607
17	12759	101.3	2.241979707607
17	12772	101.4	2.241979707607
17	12785	101.5	2.241979707607
17	12798	101.6	2.241979707607
17	12811	101.7	2.241979707607
17	12824	101.8	2.241979707607
17	12837	101.9	2.241979707607
17	12850	102	2.241979707607
17	12863	102.1	1.2745490168269
17	12876	102.2	2.239002035389
17	12889	102.3	2.239002035389
17	12902	102.4	2.239002035389
17	12915	102.5	2.239002035389
17	12928	102.6	2.239002035389
17	12941	102.7	2.239002035389
17	12954	102.8	2.239002035389
17	12967	102.9	2.239002035389
17	12980	103	2.239002035389
17	12993	103.1	3.5773269156172
17	13006	103.2	2.2431137164523
17	13019	103.3	2.2431137164523
17	13032	103.4	2.2431137164523
17	13045	103.5	2.2431137164523
17	13058	103.6	2.2431137164523
17	13071	103.7	2.2431137164523
17	13084	103.8	2.2431137164523
17	13097	103.9	2.2431137164523
17	13110	104	2.2431137164523
17	13123	104.1	4.2162426755522
17	13136	104.2	2.2491755749569
17	13149	104.3	2.2491755749569
17	13162	104.4	2.2491755749569
17	13175	104.5	2.2491755749569
17	13188	104.6	2.2491755749569
17	13201	104.7	2.2491755749569
17	13214	104.8	2.2491755749569
17	13227	104.9	2.2491755749569
17	13240	105	2.2491755749569
17	13253	105.1	0.973
17	13266	105.2	2.2445898605202
17	13279	105.3	2.2445898605202
17	13292	105.4	2.2445898605202
17	13305	105.5	2.2445898605202
17	13318	105.6	2.2445898605202
17	13331	105.7	2.2445898605202
17	13344	105.8	2.2445898605202
17	13357	105.9	2.2445898605202
17	13370	106	2.2445898605202
17	13383	106.1	0.973
17	13396	106.2	2.2396090571747
17	13409	106.3	2.2396090571747
17	13422	106.4	2.2396090571747
17	13435	106.5	2.2396090571747
17	13448	106.6	2.2396090571747
17	13461	106.7	2.2396090571747
17	13474	106.8	2.2396090571747
17	13487	106.9	2.2396090571747
17	13500	107	2.2396090571747
17	13513	107.1	5.5943765432234
17	13526	107.2	2.2499026059363
17	13539	107.3	2.2499026059363
17	13552	107.4	2.2499026059363
17	13565	107.5	2.2499026059363
17	13578	107.6	2.2499026059363
17	13591	107.7	2.2499026059363
17	13604	107.8	2.2499026059363
17	13617	107.9	2.2499026059363
17	13630	108	2.2499026059363
17	13643	108.1	0.973
17	13656	108.2	2.2369424465707
17	13669	108.3	2.2369424465707
17	13682	108.4	2.2369424465707
17	13695	108.5	2.2369424465707
17	13708	108.6	2.2369424465707
17	13721	108.7	2.2369424465707
17	13734	108.8	2.2369424465707
17	13747	108.9	2.2369424465707
17	13760	109	2.2369424465707
17	13773	109.1	7.9267227320367
17	13786	109.2	2.2543692394339
17	13799	109.3	2.2543692394339
17	13812	109.4	2.2543692394339
17	13825	109.5	2.2543692394339
17	13838	109.6	2.2543692394339
17	13851	109.7	2.2543692394339
17	13864	109.8	2.2543692394339
17	13877	109.9	2.2543692394339
17	13890	110	2.2543692394339
17	13903	110.1	0.973
17	13916	110.2	2.2501352533096
17	13929	110.3	2.2501352533096
17	13942	110.4	2.2501352533096
17	13955	110.5	2.2501352533096
17	13968	110.6	2.2501352533096
17	13981	110.7	2.2501352533096
17	13994	110.8	2.2501352533096
17	14007	110.9	2.2501352533096
17	14020	111	2.2501352533096
17	14033	111.1	0.973
17	14046	111.2	2.2398158306936
17	14059	111.3	2.2398158306936
17	14072	111.4	2.2398158306936
17	14085	111.5	2.2398158306936
17	14098	111.6	2.2398158306936
17	14111	111.7	2.2398158306936
17	14124	111.8	2.2398158306936
17	14137	111.9	2.2398158306936
17	14150	112	2.2398158306936
17	14163	112.1	8.7486814360518
17	14176	112.2	2.2597466778424
17	14189	112.3	2.2597466778424
17	14202	112.4	2.2597466778424
17	14215	112.5	2.2597466778424
17	14228	112.6	2.2597466778424
17	14241	112.7	2.2597466778424
17	14254	112.8	2.2597466778424
17	14267	112.9	2.2597466778424
17	14280	113	2.2597466778424
17	14293	113.1	0.973
17	14306	113.2	2.2400789271735
17	14319	113.3	2.2400789271735
17	14332	113.4	2.2400789271735
17	14345	113.5	2.2400789271735
17	14358	113.6	2.2400789271735
17	14371	113.7	2.2400789271735
17	14384	113.8	2.2400789271735
17	14397	113.9	2.2400789271735
17	14410	114	2.2400789271735
17	14423	114.1	1.6775055228335
17	14436	114.2	2.2383481620915
17	14449	114.3	2.2383481620915
17	14462	114.4	2.2383481620915
17	14475	114.5	2.2383481620915
17	14488	114.6	2.2383481620915
17	14501	114.7	2.2383481620915
17	14514	114.8	2.2383481620915
17	14527	114.9	2.2383481620915
17	14540	115	2.2383481620915
17	14553	115.1	3.1528497945954
17	14566	115.2	2.2411583676348
17	14579	115.3	2.2411583676348
17	14592	115.4	2.2411583676348
17	14605	115.5	2.2411583676348
17	14618	115.6	2.2411583676348
17	14631	115.7	2.2411583676348
17	14644	115.8	2.2411583676348
17	14657	115.9	2.2411583676348
17	14670	116	2.2411583676348
17	14683	116.1	7.2343292102171
17	14696	116.2	2.2564650866235
17	14709	116.3	2.2564650866235
17	14722	116.4	2.2564650866235
17	14735	116.5	2.2564650866235
17	14748	116.6	2.2564650866235
17	14761	116.7	2.2564650866235
17	14774	116.8	2.2564650866235
17	14787	116.9	2.2564650866235
17	14800	117	2.2564650866235
17	14813	117.1	0.973
17	14826	117.2	2.2451013141985
17	14839	117.3	2.2451013141985
17	14852	117.4	2.2451013141985
17	14865	117.5	2.2451013141985
17	14878	117.6	2.2451013141985
17	14891	117.7	2.2451013141985
17	14904	117.8	2.2451013141985
17	14917	117.9	2.2451013141985
17	14930	118	2.2451013141985
17	14943	118.1	0.973
17	14956	118.2	2.2396917121826
17	14969	118.3	2.2396917121826
17	14982	118.4	2.2396917121826
17	14995	118.5	2.2396917121826
17	15008	118.6	2.2396917121826
17	15021	118.7	2.2396917121826
17	15034	118.8	2.2396917121826
17	15047	118.9	2.2396917121826
17	15060	119	2.2396917121826
17	15073	119.1	8.2884994541809
17	15086	119.2	2.2582190658565
17	15099	119.3	2.2582190658565
17	15112	119.4	2.2582190658565
17	15125	119.5	2.2582190658565
17	15138	119.6	2.2582190658565
17	15151	119.7	2.2582190658565
17	15164	119.8	2.2582190658565
17	15177	119.9	2.2582190658565
17	15190	120	2.2582190658565
17	15203	120.1	0.973
17	15216	120.2	2.2466096016729
17	15229	120.3	2.2466096016729
17	15242	120.4	2.2466096016729
17	15255	120.5	2.2466096016729
17	15268	120.6	2.2466096016729
17	15281	120.7	2.2466096016729
17	15294	120.8	2.2466096016729
17	15307	120.9	2.2466096016729
17	15320	121	2.2466096016729
17	15333	121.1	4.4946717259797
17	15346	121.2	2.2535172651496
17	15359	121.3	2.2535172651496
17	15372	121.4	2.2535172651496
17	15385	121.5	2.2535172651496
17	15398	121.6	2.2535172651496
17	15411	121.7	2.2535172651496
17	15424	121.8	2.2535172651496
17	15437	121.9	2.2535172651496
17	15450	122	2.2535172651496
17	15463	122.1	2.4513762951927
17	15476	122.2	2.2541264682804
17	15489	122.3	2.2541264682804
17	15502	122.4	2.2541264682804
17	15515	122.5	2.2541264682804
17	15528	122.6	2.2541264682804
17	15541	122.7	2.2541264682804
17	15554	122.8	2.2541264682804
17	15567	122.9	2.2541264682804
17	15580	123	2.2541264682804
17	15593	123.1	0.973
17	15606	123.2	2.2468363514881
17	15619	123.3	2.2468363514881
17	15632	123.4	2.2468363514881
17	15645	123.5	2.2468363514881
17	15658	123.6	2.2468363514881
17	15671	123.7	2.2468363514881
17	15684	123.8	2.2468363514881
17	15697	123.9	2.2468363514881
17	15710	124	2.2468363514881
17	15723	124.1	4.9018386610974
17	15736	124.2	2.2549924391644
17	15749	124.3	2.2549924391644
17	15762	124.4	2.2549924391644
17	15775	124.5	2.2549924391644
17	15788	124.6	2.2549924391644
17	15801	124.7	2.2549924391644
17	15814	124.8	2.2549924391644
17	15827	124.9	2.2549924391644
17	15840	125	2.2549924391644
17	15854	125.1	3.3694514090766
17	15867	125.2	2.2584222734803
17	15880	125.3	2.2584222734803
17	15893	125.4	2.2584222734803
17	15906	125.5	2.2584222734803
17	15919	125.6	2.2584222734803
17	15932	125.7	2.2584222734803
17	15945	125.8	2.2584222734803
17	15958	125.9	2.2584222734803
17	15971	126	2.2584222734803
17	15984	126.1	0.973
17	15997	126.2	2.2514257065641
17	16010	126.3	2.2514257065641
17	16023	126.4	2.2514257065641
17	16036	126.5	2.2514257065641
17	16049	126.6	2.2514257065641
17	16062	126.7	2.2514257065641
17	16075	126.8	2.2514257065641
17	16088	126.9	2.2514257065641
17	16101	127	2.2514257065641
17	16114	127.1	4.2789713664523
17	16127	127.2	2.2576596924174
17	16140	127.3	2.2576596924174
17	16153	127.4	2.2576596924174
17	16166	127.5	2.2576596924174
17	16179	127.6	2.2576596924174
17	16192	127.7	2.2576596924174
17	16205	127.8	2.2576596924174
17	16218	127.9	2.2576596924174
17	16231	128	2.2576596924174
17	16244	128.1	0.973
17	16257	128.2	2.2369147605809
17	16270	128.3	2.2369147605809
17	16283	128.4	2.2369147605809
17	16296	128.5	2.2369147605809
17	16309	128.6	2.2369147605809
17	16322	128.7	2.2369147605809
17	16335	128.8	2.2369147605809
17	16348	128.9	2.2369147605809
17	16361	129	2.2369147605809
17	16374	129.1	5.2312324890681
17	16387	129.2	2.2461020484708
17	16400	129.3	2.2461020484708
17	16413	129.4	2.2461020484708
17	16426	129.5	2.2461020484708
17	16439	129.6	2.2461020484708
17	16452	129.7	2.2461020484708
17	16465	129.8	2.2461020484708
17	16478	129.9	2.2461020484708
17	16491	130	2.2461020484708
17	16504	130.1	6.0750182419592
17	16517	130.2	2.2578545007091
17	16530	130.3	2.2578545007091
17	16543	130.4	2.2578545007091
17	16556	130.5	2.2578545007091
17	16569	130.6	2.2578545007091
17	16582	130.7	2.2578545007091
17	16595	130.8	2.2578545007091
17	16608	130.9	2.2578545007091
17	16621	131	2.2578545007091
17	16634	131.1	0.973
17	16647	131.2	2.2457849679981
17	16660	131.3	2.2457849679981
17	16673	131.4	2.2457849679981
17	16686	131.5	2.2457849679981
17	16699	131.6	2.2457849679981
17	16712	131.7	2.2457849679981
17	16725	131.8	2.2457849679981
17	16738	131.9	2.2457849679981
17	16751	132	2.2457849679981
17	16764	132.1	1.1306617227893
17	16777	132.2	2.242351115518
17	16790	132.3	2.242351115518
17	16803	132.4	2.242351115518
17	16816	132.5	2.242351115518
17	16829	132.6	2.242351115518
17	16842	132.7	2.242351115518
17	16855	132.8	2.242351115518
17	16868	132.9	2.242351115518
17	16881	133	2.242351115518
17	16894	133.1	2.3751484325135
17	16907	133.2	2.242759566241
17	16920	133.3	2.242759566241
17	16933	133.4	2.242759566241
17	16946	133.5	2.242759566241
17	16959	133.6	2.242759566241
17	16972	133.7	2.242759566241
17	16985	133.8	2.242759566241
17	16998	133.9	2.242759566241
17	17011	134	2.242759566241
17	17024	134.1	3.2031308161581
17	17037	134.2	2.2457119061857
17	17050	134.3	2.2457119061857
17	17063	134.4	2.2457119061857
17	17076	134.5	2.2457119061857
17	17089	134.6	2.2457119061857
17	17102	134.7	2.2457119061857
17	17115	134.8	2.2457119061857
17	17128	134.9	2.2457119061857
17	17141	135	2.2457119061857
17	17154	135.1	5.5745991215946
17	17167	135.2	2.255932492008
17	17180	135.3	2.255932492008
17	17193	135.4	2.255932492008
17	17206	135.5	2.255932492008
17	17219	135.6	2.255932492008
17	17232	135.7	2.255932492008
17	17245	135.8	2.255932492008
17	17258	135.9	2.255932492008
17	17271	136	2.255932492008
17	17284	136.1	3.1213166801602
17	17297	136.2	2.2585964624228
17	17310	136.3	2.2585964624228
17	17323	136.4	2.2585964624228
17	17336	136.5	2.2585964624228
17	17349	136.6	2.2585964624228
17	17362	136.7	2.2585964624228
17	17375	136.8	2.2585964624228
17	17388	136.9	2.2585964624228
17	17401	137	2.2585964624228
17	17414	137.1	2.63625740386
17	17427	137.2	2.2597597207337
17	17440	137.3	2.2597597207337
17	17453	137.4	2.2597597207337
17	17466	137.5	2.2597597207337
17	17479	137.6	2.2597597207337
17	17492	137.7	2.2597597207337
17	17505	137.8	2.2597597207337
17	17518	137.9	2.2597597207337
17	17531	138	2.2597597207337
17	17544	138.1	0.973
17	17557	138.2	2.2444568443485
17	17570	138.3	2.2444568443485
17	17583	138.4	2.2444568443485
17	17596	138.5	2.2444568443485
17	17609	138.6	2.2444568443485
17	17622	138.7	2.2444568443485
17	17635	138.8	2.2444568443485
17	17648	138.9	2.2444568443485
17	17661	139	2.2444568443485
17	17674	139.1	1.4263197914949
17	17687	139.2	2.2419383412987
17	17700	139.3	2.2419383412987
17	17713	139.4	2.2419383412987
17	17726	139.5	2.2419383412987
17	17739	139.6	2.2419383412987
17	17752	139.7	2.2419383412987
17	17765	139.8	2.2419383412987
17	17778	139.9	2.2419383412987
17	17791	140	2.2419383412987
17	17804	140.1	0.973
17	17817	140.2	2.2375023937763
17	17830	140.3	2.2375023937763
17	17843	140.4	2.2375023937763
17	17856	140.5	2.2375023937763
17	17869	140.6	2.2375023937763
17	17882	140.7	2.2375023937763
17	17895	140.8	2.2375023937763
17	17908	140.9	2.2375023937763
17	17921	141	2.2375023937763
17	17934	141.1	7.3673091203768
17	17947	141.2	2.2532207146748
17	17960	141.3	2.2532207146748
17	17973	141.4	2.2532207146748
17	17986	141.5	2.2532207146748
17	17999	141.6	2.2532207146748
17	18012	141.7	2.2532207146748
17	18025	141.8	2.2532207146748
17	18038	141.9	2.2532207146748
17	18051	142	2.2532207146748
17	18064	142.1	0.973
17	18077	142.2	2.2436358827398
17	18090	142.3	2.2436358827398
17	18103	142.4	2.2436358827398
17	18116	142.5	2.2436358827398
17	18129	142.6	2.2436358827398
17	18142	142.7	2.2436358827398
17	18155	142.8	2.2436358827398
17	18168	142.9	2.2436358827398
17	18181	143	2.2436358827398
17	18194	143.1	7.2426917455734
17	18207	143.2	2.2589644714126
17	18220	143.3	2.2589644714126
17	18233	143.4	2.2589644714126
17	18246	143.5	2.2589644714126
17	18259	143.6	2.2589644714126
17	18272	143.7	2.2589644714126
17	18285	143.8	2.2589644714126
17	18298	143.9	2.2589644714126
17	18311	144	2.2589644714126
17	18324	144.1	0.973
17	18337	144.2	2.2373376155802
17	18350	144.3	2.2373376155802
17	18363	144.4	2.2373376155802
17	18376	144.5	2.2373376155802
17	18389	144.6	2.2373376155802
17	18402	144.7	2.2373376155802
17	18415	144.8	2.2373376155802
17	18428	144.9	2.2373376155802
17	18441	145	2.2373376155802
17	18454	145.1	2.7445596334963
17	18467	145.2	2.2388965517021
17	18480	145.3	2.2388965517021
17	18493	145.4	2.2388965517021
17	18506	145.5	2.2388965517021
17	18519	145.6	2.2388965517021
17	18532	145.7	2.2388965517021
17	18545	145.8	2.2388965517021
17	18558	145.9	2.2388965517021
17	18571	146	2.2388965517021
17	18584	146.1	4.3929593002993
17	18597	146.2	2.2455107221292
17	18610	146.3	2.2455107221292
17	18623	146.4	2.2455107221292
17	18636	146.5	2.2455107221292
17	18649	146.6	2.2455107221292
17	18662	146.7	2.2455107221292
17	18675	146.8	2.2455107221292
17	18688	146.9	2.2455107221292
17	18701	147	2.2455107221292
17	18714	147.1	1.7535809323914
17	18727	147.2	2.2439965736591
17	18740	147.3	2.2439965736591
17	18753	147.4	2.2439965736591
17	18766	147.5	2.2439965736591
17	18779	147.6	2.2439965736591
17	18792	147.7	2.2439965736591
17	18805	147.8	2.2439965736591
17	18818	147.9	2.2439965736591
17	18831	148	2.2439965736591
17	18844	148.1	3.2690456734418
17	18857	148.2	2.2471479906838
17	18870	148.3	2.2471479906838
17	18883	148.4	2.2471479906838
17	18896	148.5	2.2471479906838
17	18909	148.6	2.2471479906838
17	18922	148.7	2.2471479906838
17	18935	148.8	2.2471479906838
17	18948	148.9	2.2471479906838
17	18961	149	2.2471479906838
17	18974	149.1	0.973
17	18987	149.2	2.2410720491859
17	19000	149.3	2.2410720491859
17	19013	149.4	2.2410720491859
17	19026	149.5	2.2410720491859
17	19039	149.6	2.2410720491859
17	19052	149.7	2.2410720491859
17	19065	149.8	2.2410720491859
17	19078	149.9	2.2410720491859
17	19091	150	2.2410720491859
17	19104	150.1	3.7142277038735
17	19117	150.2	2.2455984763974
17	19130	150.3	2.2455984763974
17	19143	150.4	2.2455984763974
17	19156	150.5	2.2455984763974
17	19169	150.6	2.2455984763974
17	19182	150.7	2.2455984763974
17	19195	150.8	2.2455984763974
17	19208	150.9	2.2455984763974
17	19221	151	2.2455984763974
17	19234	151.1	2.1407997557395
17	19247	151.2	2.2452759892564
17	19260	151.3	2.2452759892564
17	19273	151.4	2.2452759892564
17	19286	151.5	2.2452759892564
17	19299	151.6	2.2452759892564
17	19312	151.7	2.2452759892564
17	19325	151.8	2.2452759892564
17	19338	151.9	2.2452759892564
17	19351	152	2.2452759892564
17	19364	152.1	1.8142639523301
17	19377	152.2	2.2439494285589
17	19390	152.3	2.2439494285589
17	19403	152.4	2.2439494285589
17	19416	152.5	2.2439494285589
17	19429	152.6	2.2439494285589
17	19442	152.7	2.2439494285589
17	19455	152.8	2.2439494285589
17	19468	152.9	2.2439494285589
17	19481	153	2.2439494285589
17	19494	153.1	6.1201099987534
17	19507	153.2	2.2558439272981
17	19520	153.3	2.2558439272981
17	19533	153.4	2.2558439272981
17	19546	153.5	2.2558439272981
17	19559	153.6	2.2558439272981
17	19572	153.7	2.2558439272981
17	19585	153.8	2.2558439272981
17	19598	153.9	2.2558439272981
17	19611	154	2.2558439272981
17	19624	154.1	2.3859661065713
17	19637	154.2	2.2562446803933
17	19650	154.3	2.2562446803933
17	19663	154.4	2.2562446803933
17	19676	154.5	2.2562446803933
17	19689	154.6	2.2562446803933
17	19702	154.7	2.2562446803933
17	19715	154.8	2.2562446803933
17	19728	154.9	2.2562446803933
17	19741	155	2.2562446803933
17	19754	155.1	2.7763632336626
17	19767	155.2	2.2578462073397
17	19780	155.3	2.2578462073397
17	19793	155.4	2.2578462073397
17	19806	155.5	2.2578462073397
17	19819	155.6	2.2578462073397
17	19832	155.7	2.2578462073397
17	19845	155.8	2.2578462073397
17	19858	155.9	2.2578462073397
17	19871	156	2.2578462073397
17	19884	156.1	0.973
17	19897	156.2	2.2508963579046
17	19910	156.3	2.2508963579046
17	19923	156.4	2.2508963579046
17	19936	156.5	2.2508963579046
17	19949	156.6	2.2508963579046
17	19962	156.7	2.2508963579046
17	19975	156.8	2.2508963579046
17	19988	156.9	2.2508963579046
17	20001	157	2.2508963579046
17	20014	157.1	0.973
17	20027	157.2	2.2415737000251
17	20040	157.3	2.2415737000251
17	20053	157.4	2.2415737000251
17	20066	157.5	2.2415737000251
17	20079	157.6	2.2415737000251
17	20092	157.7	2.2415737000251
17	20105	157.8	2.2415737000251
17	20118	157.9	2.2415737000251
17	20131	158	2.2415737000251
17	20144	158.1	2.8079547313951
17	20157	158.2	2.2433151058227
17	20170	158.3	2.2433151058227
17	20183	158.4	2.2433151058227
17	20196	158.5	2.2433151058227
17	20209	158.6	2.2433151058227
17	20222	158.7	2.2433151058227
17	20235	158.8	2.2433151058227
17	20248	158.9	2.2433151058227
17	20261	159	2.2433151058227
17	20274	159.1	3.7321580479842
17	20287	159.2	2.24789069657
17	20300	159.3	2.24789069657
17	20313	159.4	2.24789069657
17	20326	159.5	2.24789069657
17	20339	159.6	2.24789069657
17	20352	159.7	2.24789069657
17	20365	159.8	2.24789069657
17	20378	159.9	2.24789069657
17	20391	160	2.24789069657
17	20404	160.1	0.973
17	20417	160.2	2.2429961541412
17	20430	160.3	2.2429961541412
17	20443	160.4	2.2429961541412
17	20456	160.5	2.2429961541412
17	20469	160.6	2.2429961541412
17	20482	160.7	2.2429961541412
17	20495	160.8	2.2429961541412
17	20508	160.9	2.2429961541412
17	20521	161	2.2429961541412
17	20534	161.1	1.2635913552691
17	20547	161.2	2.2399813089144
17	20560	161.3	2.2399813089144
17	20573	161.4	2.2399813089144
17	20586	161.5	2.2399813089144
17	20599	161.6	2.2399813089144
17	20612	161.7	2.2399813089144
17	20625	161.8	2.2399813089144
17	20638	161.9	2.2399813089144
17	20651	162	2.2399813089144
17	20664	162.1	2.2836406550876
17	20677	162.2	2.240115571224
17	20690	162.3	2.240115571224
17	20703	162.4	2.240115571224
17	20716	162.5	2.240115571224
17	20729	162.6	2.240115571224
17	20742	162.7	2.240115571224
17	20755	162.8	2.240115571224
17	20768	162.9	2.240115571224
17	20781	163	2.240115571224
17	20794	163.1	2.3721567367643
17	20807	163.2	2.240521608576
17	20820	163.3	2.240521608576
17	20833	163.4	2.240521608576
17	20846	163.5	2.240521608576
17	20859	163.6	2.240521608576
17	20872	163.7	2.240521608576
17	20885	163.8	2.240521608576
17	20898	163.9	2.240521608576
17	20911	164	2.240521608576
17	20924	164.1	2.7266970996861
17	20937	164.2	2.2420163404864
17	20950	164.3	2.2420163404864
17	20963	164.4	2.2420163404864
17	20976	164.5	2.2420163404864
17	20989	164.6	2.2420163404864
17	21002	164.7	2.2420163404864
17	21015	164.8	2.2420163404864
17	21028	164.9	2.2420163404864
17	21041	165	2.2420163404864
17	21054	165.1	2.5107189227853
17	21067	165.2	2.2428426989738
17	21080	165.3	2.2428426989738
17	21093	165.4	2.2428426989738
17	21106	165.5	2.2428426989738
17	21119	165.6	2.2428426989738
17	21132	165.7	2.2428426989738
17	21145	165.8	2.2428426989738
17	21158	165.9	2.2428426989738
17	21171	166	2.2428426989738
17	21184	166.1	5.1659121482872
17	21197	166.2	2.2518171068403
17	21210	166.3	2.2518171068403
17	21223	166.4	2.2518171068403
17	21236	166.5	2.2518171068403
17	21249	166.6	2.2518171068403
17	21262	166.7	2.2518171068403
17	21275	166.8	2.2518171068403
17	21288	166.9	2.2518171068403
17	21301	167	2.2518171068403
17	21314	167.1	0.973
17	21327	167.2	2.2377210188612
17	21340	167.3	2.2377210188612
17	21353	167.4	2.2377210188612
17	21366	167.5	2.2377210188612
17	21379	167.6	2.2377210188612
17	21392	167.7	2.2377210188612
17	21405	167.8	2.2377210188612
17	21418	167.9	2.2377210188612
17	21431	168	2.2377210188612
17	21444	168.1	2.0232742304781
17	21457	168.2	2.2370615748977
17	21470	168.3	2.2370615748977
17	21483	168.4	2.2370615748977
17	21496	168.5	2.2370615748977
17	21509	168.6	2.2370615748977
17	21522	168.7	2.2370615748977
17	21535	168.8	2.2370615748977
17	21548	168.9	2.2370615748977
17	21561	169	2.2370615748977
17	21574	169.1	0.973
17	21587	169.2	1.7895994312443
17	21600	169.3	1.7895994312443
17	21613	169.4	1.7895994312443
17	21626	169.5	1.7895994312443
17	21639	169.6	1.7895994312443
17	21652	169.7	1.7895994312443
17	21665	169.8	1.7895994312443
17	21678	169.9	1.7895994312443
17	21691	170	1.7895994312443
17	21704	170.1	0.973
17	21717	170.2	1.4435390985942
17	21730	170.3	1.4435390985942
17	21743	170.4	1.4435390985942
17	21756	170.5	1.4435390985942
17	21769	170.6	1.4435390985942
17	21782	170.7	1.4435390985942
17	21795	170.8	1.4435390985942
17	21808	170.9	1.4435390985942
17	21821	171	1.4435390985942
17	21834	171.1	40.891580455688
17	21847	171.2	1.567351527297
17	21860	171.3	1.567351527297
17	21873	171.4	1.567351527297
17	21886	171.5	1.567351527297
17	21899	171.6	1.567351527297
17	21912	171.7	1.567351527297
17	21925	171.8	1.567351527297
17	21938	171.9	1.567351527297
17	21951	172	1.567351527297
17	21964	172.1	51.589608465467
17	21977	172.2	1.7124210584839
17	21990	172.3	1.7124210584839
17	22003	172.4	1.7124210584839
17	22016	172.5	1.7124210584839
17	22029	172.6	1.7124210584839
17	22042	172.7	1.7124210584839
17	22055	172.8	1.7124210584839
17	22068	172.9	1.7124210584839
17	22081	173	1.7124210584839
17	22094	173.1	60.488110630136
17	22107	173.2	1.8780862158593
17	22120	173.3	1.8780862158593
17	22133	173.4	1.8780862158593
17	22146	173.5	1.8780862158593
17	22159	173.6	1.8780862158593
17	22172	173.7	1.8780862158593
17	22185	173.8	1.8780862158593
17	22198	173.9	1.8780862158593
17	22211	174	1.8780862158593
17	22224	174.1	64.889195892125
17	22237	174.2	2.0565111914799
17	22250	174.3	2.0565111914799
17	22263	174.4	2.0565111914799
17	22276	174.5	2.0565111914799
17	22289	174.6	2.0565111914799
17	22302	174.7	2.0565111914799
17	22315	174.8	2.0565111914799
17	22328	174.9	2.0565111914799
17	22341	175	2.0565111914799
17	22354	175.1	68.849483823123
17	22367	175.2	2.2493268303486
17	22380	175.3	2.2493268303486
17	22393	175.4	2.2493268303486
17	22406	175.5	2.2493268303486
17	22419	175.6	2.2493268303486
17	22432	175.7	2.2493268303486
17	22445	175.8	2.2493268303486
17	22458	175.9	2.2493268303486
17	22471	176	2.2493268303486
17	22484	176.1	0.973
17	22497	176.2	2.2395282207803
17	22510	176.3	2.2395282207803
17	22523	176.4	2.2395282207803
17	22536	176.5	2.2395282207803
17	22549	176.6	2.2395282207803
17	22562	176.7	2.2395282207803
17	22575	176.8	2.2395282207803
17	22588	176.9	2.2395282207803
17	22601	177	2.2395282207803
17	22614	177.1	6.9848063486792
17	22627	177.2	2.254074945041
17	22640	177.3	2.254074945041
17	22653	177.4	2.254074945041
17	22666	177.5	2.254074945041
17	22679	177.6	2.254074945041
17	22692	177.7	2.254074945041
17	22705	177.8	2.254074945041
17	22718	177.9	2.254074945041
17	22731	178	2.254074945041
17	22744	178.1	0.973
17	22757	178.2	2.2399866220886
17	22770	178.3	2.2399866220886
17	22783	178.4	2.2399866220886
17	22796	178.5	2.2399866220886
17	22809	178.6	2.2399866220886
17	22822	178.7	2.2399866220886
17	22835	178.8	2.2399866220886
17	22848	178.9	2.2399866220886
17	22861	179	2.2399866220886
17	22874	179.1	2.6565347617036
17	22887	179.2	2.2412672802925
17	22900	179.3	2.2412672802925
17	22913	179.4	2.2412672802925
17	22926	179.5	2.2412672802925
17	22939	179.6	2.2412672802925
17	22952	179.7	2.2412672802925
17	22965	179.8	2.2412672802925
17	22978	179.9	2.2412672802925
17	22991	180	2.2412672802925
17	23004	180.1	5.4222500668623
17	23017	180.2	2.2510303372734
17	23030	180.3	2.2510303372734
17	23043	180.4	2.2510303372734
17	23056	180.5	2.2510303372734
17	23069	180.6	2.2510303372734
17	23082	180.7	2.2510303372734
17	23095	180.8	2.2510303372734
17	23108	180.9	2.2510303372734
17	23121	181	2.2510303372734
17	23134	181.1	0.973
17	23147	181.2	2.2403488315034
17	23160	181.3	2.2403488315034
17	23173	181.4	2.2403488315034
17	23186	181.5	2.2403488315034
17	23199	181.6	2.2403488315034
17	23212	181.7	2.2403488315034
17	23225	181.8	2.2403488315034
17	23238	181.9	2.2403488315034
17	23251	182	2.2403488315034
17	23264	182.1	5.9151721069474
17	23277	182.2	2.2516228839973
17	23290	182.3	2.2516228839973
17	23303	182.4	2.2516228839973
17	23316	182.5	2.2516228839973
17	23329	182.6	2.2516228839973
17	23342	182.7	2.2516228839973
17	23355	182.8	2.2516228839973
17	23368	182.9	2.2516228839973
17	23381	183	2.2516228839973
17	23394	183.1	0.973
17	23407	183.2	2.2387195419901
17	23420	183.3	2.2387195419901
17	23433	183.4	2.2387195419901
17	23446	183.5	2.2387195419901
17	23459	183.6	2.2387195419901
17	23472	183.7	2.2387195419901
17	23485	183.8	2.2387195419901
17	23498	183.9	2.2387195419901
17	23511	184	2.2387195419901
17	23524	184.1	4.9042042696242
17	23537	184.2	2.2469011401738
17	23550	184.3	2.2469011401738
17	23563	184.4	2.2469011401738
17	23576	184.5	2.2469011401738
17	23589	184.6	2.2469011401738
17	23602	184.7	2.2469011401738
17	23615	184.8	2.2469011401738
17	23628	184.9	2.2469011401738
17	23641	185	2.2469011401738
17	23654	185.1	4.3527056290232
17	23667	185.2	2.2533724785527
17	23680	185.3	2.2533724785527
17	23693	185.4	2.2533724785527
17	23706	185.5	2.2533724785527
17	23719	185.6	2.2533724785527
17	23732	185.7	2.2533724785527
17	23745	185.8	2.2533724785527
17	23758	185.9	2.2533724785527
17	23771	186	2.2533724785527
17	23784	186.1	0.973
17	23797	186.2	2.2472087061134
17	23810	186.3	2.2472087061134
17	23823	186.4	2.2472087061134
17	23836	186.5	2.2472087061134
17	23849	186.6	2.2472087061134
17	23862	186.7	2.2472087061134
17	23875	186.8	2.2472087061134
17	23888	186.9	2.2472087061134
17	23901	187	2.2472087061134
17	23914	187.1	2.9877070207354
17	23927	187.2	2.2494864478867
17	23940	187.3	2.2494864478867
17	23953	187.4	2.2494864478867
17	23966	187.5	2.2494864478867
17	23979	187.6	2.2494864478867
17	23992	187.7	2.2494864478867
17	24005	187.8	2.2494864478867
17	24018	187.9	2.2494864478867
17	24031	188	2.2494864478867
17	24044	188.1	2.9794924542821
17	24057	188.2	2.2517324356541
17	24070	188.3	2.2517324356541
17	24083	188.4	2.2517324356541
17	24096	188.5	2.2517324356541
17	24109	188.6	2.2517324356541
17	24122	188.7	2.2517324356541
17	24135	188.8	2.2517324356541
17	24148	188.9	2.2517324356541
17	24161	189	2.2517324356541
17	24174	189.1	0.973
17	24187	189.2	2.2447734189369
17	24200	189.3	2.2447734189369
17	24213	189.4	2.2447734189369
17	24226	189.5	2.2447734189369
17	24239	189.6	2.2447734189369
17	24252	189.7	2.2447734189369
17	24265	189.8	2.2447734189369
17	24278	189.9	2.2447734189369
17	24291	190	2.2447734189369
17	24304	190.1	4.5081395995826
17	24317	190.2	2.2517267623377
17	24330	190.3	2.2517267623377
17	24343	190.4	2.2517267623377
17	24356	190.5	2.2517267623377
17	24369	190.6	2.2517267623377
17	24382	190.7	2.2517267623377
17	24395	190.8	2.2517267623377
17	24408	190.9	2.2517267623377
17	24421	191	2.2517267623377
17	24434	191.1	1.5600077161513
17	24447	191.2	2.2495960969448
17	24460	191.3	2.2495960969448
17	24473	191.4	2.2495960969448
17	24486	191.5	2.2495960969448
17	24499	191.6	2.2495960969448
17	24512	191.7	2.2495960969448
17	24525	191.8	2.2495960969448
17	24538	191.9	2.2495960969448
17	24551	192	2.2495960969448
17	24564	192.1	4.9685743191796
17	24577	192.2	2.2579506903397
17	24590	192.3	2.2579506903397
17	24603	192.4	2.2579506903397
17	24616	192.5	2.2579506903397
17	24629	192.6	2.2579506903397
17	24642	192.7	2.2579506903397
17	24655	192.8	2.2579506903397
17	24668	192.9	2.2579506903397
17	24681	193	2.2579506903397
17	24694	193.1	0.973
17	24707	193.2	2.2467304468485
17	24720	193.3	2.2467304468485
17	24733	193.4	2.2467304468485
17	24746	193.5	2.2467304468485
17	24759	193.6	2.2467304468485
17	24772	193.7	2.2467304468485
17	24785	193.8	2.2467304468485
17	24798	193.9	2.2467304468485
17	24811	194	2.2467304468485
17	24824	194.1	5.6882798769183
17	24837	194.2	2.2572972502765
17	24850	194.3	2.2572972502765
17	24863	194.4	2.2572972502765
17	24876	194.5	2.2572972502765
17	24889	194.6	2.2572972502765
17	24902	194.7	2.2572972502765
17	24915	194.8	2.2572972502765
17	24928	194.9	2.2572972502765
17	24941	195	2.2572972502765
17	24954	195.1	0.94331993152894
17	24967	195.2	2.2532460029659
17	24980	195.3	2.2532460029659
17	24993	195.4	2.2532460029659
17	25006	195.5	2.2532460029659
17	25019	195.6	2.2532460029659
17	25032	195.7	2.2532460029659
17	25045	195.8	2.2532460029659
17	25058	195.9	2.2532460029659
17	25071	196	2.2532460029659
17	25084	196.1	3.3027396133096
17	25097	196.2	2.256475475171
17	25110	196.3	2.256475475171
17	25123	196.4	2.256475475171
17	25136	196.5	2.256475475171
17	25149	196.6	2.256475475171
17	25162	196.7	2.256475475171
17	25175	196.8	2.256475475171
17	25188	196.9	2.256475475171
17	25201	197	2.256475475171
17	25214	197.1	0.973
17	25227	197.2	2.2407040226778
17	25240	197.3	2.2407040226778
17	25253	197.4	2.2407040226778
17	25266	197.5	2.2407040226778
17	25279	197.6	2.2407040226778
17	25292	197.7	2.2407040226778
17	25305	197.8	2.2407040226778
17	25318	197.9	2.2407040226778
17	25331	198	2.2407040226778
17	25344	198.1	1.6273181296718
17	25357	198.2	2.238816754301
17	25370	198.3	2.238816754301
17	25383	198.4	2.238816754301
17	25396	198.5	2.238816754301
17	25409	198.6	2.238816754301
17	25422	198.7	2.238816754301
17	25435	198.8	2.238816754301
17	25448	198.9	2.238816754301
17	25461	199	2.238816754301
16	168	3.3	0
16	177	3.4	0
16	186	3.5	0
16	197	3.6	0
16	206	3.7	0
16	215	3.8	0
16	224	3.9	0
16	233	4	0
16	242	4.1	18.245346464682
16	251	4.2	0
16	260	4.3	0
16	269	4.4	0
16	278	4.5	0
16	287	4.6	0
16	296	4.7	0
16	305	4.8	0
16	314	4.9	0
16	323	5	0
16	332	5.1	19.000897391699
16	341	5.2	0
16	350	5.3	0
16	359	5.4	0
16	368	5.5	0
16	377	5.6	0
16	386	5.7	0
16	395	5.8	0
16	404	5.9	0
16	413	6	0
16	422	6.1	18.070147137158
16	431	6.2	0
16	440	6.3	0
16	449	6.4	0
16	458	6.5	0
16	467	6.6	0
16	476	6.7	0
16	485	6.8	0
16	494	6.9	0
16	503	7	0
16	512	7.1	19.992908899207
16	523	7.2	0
16	536	7.3	0
16	549	7.4	0
16	562	7.5	0
16	577	7.6	0
16	590	7.7	0
16	603	7.8	0
16	616	7.9	0
16	629	8	0
16	642	8.1	18.15271131089
16	655	8.2	0
16	668	8.3	0
16	681	8.4	0
16	694	8.5	0
16	707	8.6	0
16	720	8.7	0
16	733	8.8	0
16	746	8.9	0
16	759	9	0
16	772	9.1	18.124460673425
16	785	9.2	0
16	798	9.3	0
16	811	9.4	0
16	824	9.5	0
16	837	9.6	0
16	850	9.7	0
16	863	9.8	0
16	876	9.9	0
16	889	10	0
16	902	10.1	19.318149838131
16	915	10.2	0
16	928	10.3	0
16	941	10.4	0
16	954	10.5	0
16	967	10.6	0
16	980	10.7	0
16	993	10.8	0
16	1006	10.9	0
16	1019	11	0
16	1032	11.1	19.58979054587
16	1045	11.2	0
16	1058	11.3	0
16	1071	11.4	0
16	1084	11.5	0
16	1097	11.6	0
16	1110	11.7	0
16	1123	11.8	0
16	1136	11.9	0
16	1149	12	0
16	1162	12.1	7.7434942857362
16	1175	12.2	0
16	1188	12.3	0
16	1201	12.4	0
16	1214	12.5	0
16	1227	12.6	0
16	1240	12.7	0
16	1253	12.8	0
16	1266	12.9	0
16	1279	13	0
16	1292	13.1	0.59333064546809
16	1305	13.2	0
16	1318	13.3	0
16	1331	13.4	0
16	1344	13.5	0
16	1357	13.6	0
16	1370	13.7	0
16	1383	13.8	0
16	1396	13.9	0
16	1409	14	0
16	1422	14.1	-0.59591825213284
16	1435	14.2	0
16	1448	14.3	0
16	1461	14.4	0
16	1474	14.5	0
16	1487	14.6	0
16	1500	14.7	0
16	1513	14.8	0
16	1526	14.9	0
16	1539	15	0
16	1552	15.1	0.52395087573677
16	1565	15.2	0
16	1578	15.3	0
16	1591	15.4	0
16	1604	15.5	0
16	1617	15.6	0
16	1630	15.7	0
16	1643	15.8	0
16	1656	15.9	0
16	1669	16	0
16	1682	16.1	1.1850833403878
16	1695	16.2	0
16	1708	16.3	0
16	1721	16.4	0
16	1734	16.5	0
16	1747	16.6	0
16	1760	16.7	0
16	1773	16.8	0
16	1786	16.9	0
16	1799	17	0
16	1812	17.1	-0.14701917767525
16	1825	17.2	0
16	1838	17.3	0
16	1851	17.4	0
16	1864	17.5	0
16	1877	17.6	0
16	1890	17.7	0
16	1903	17.8	0
16	1916	17.9	0
16	1929	18	0
16	1942	18.1	0.12291967775672
16	1955	18.2	0
16	1968	18.3	0
16	1981	18.4	0
16	1994	18.5	0
16	2007	18.6	0
16	2020	18.7	0
16	2033	18.8	0
16	2046	18.9	0
16	2059	19	0
16	2072	19.1	-1.6454845336266
16	2085	19.2	0
16	2098	19.3	0
16	2111	19.4	0
16	2124	19.5	0
16	2137	19.6	0
16	2150	19.7	0
16	2163	19.8	0
16	2176	19.9	0
16	2189	20	0
16	2202	20.1	0.52678490616382
16	2215	20.2	0
16	2228	20.3	0
16	2241	20.4	0
16	2254	20.5	0
16	2267	20.6	0
16	2280	20.7	0
16	2293	20.8	0
16	2306	20.9	0
16	2319	21	0
16	2332	21.1	-0.20828142156825
16	2345	21.2	0
16	2358	21.3	0
16	2371	21.4	0
16	2384	21.5	0
16	2397	21.6	0
16	2410	21.7	0
16	2423	21.8	0
16	2436	21.9	0
16	2449	22	0
16	2462	22.1	0.35028954781591
16	2475	22.2	0
16	2488	22.3	0
16	2501	22.4	0
16	2514	22.5	0
16	2527	22.6	0
16	2540	22.7	0
16	2553	22.8	0
16	2566	22.9	0
16	2579	23	0
16	2592	23.1	-0.27779757976532
16	2605	23.2	0
16	2618	23.3	0
16	2631	23.4	0
16	2644	23.5	0
16	2657	23.6	0
16	2670	23.7	0
16	2683	23.8	0
16	2696	23.9	0
16	2709	24	0
16	2722	24.1	-0.57772746682167
16	2735	24.2	0
16	2748	24.3	0
16	2761	24.4	0
16	2774	24.5	0
16	2787	24.6	0
16	2800	24.7	0
16	2813	24.8	0
16	2826	24.9	0
16	2839	25	0
16	2852	25.1	0.22010163031519
16	2865	25.2	0
16	2878	25.3	0
16	2891	25.4	0
16	2904	25.5	0
16	2917	25.6	0
16	2930	25.7	0
16	2943	25.8	0
16	2956	25.9	0
16	2969	26	0
16	2982	26.1	0.53336636675521
16	2995	26.2	0
16	3008	26.3	0
16	3021	26.4	0
16	3034	26.5	0
16	3047	26.6	0
16	3060	26.7	0
16	3073	26.8	0
16	3086	26.9	0
16	3099	27	0
16	3112	27.1	-0.19942911434919
16	3125	27.2	0
16	3138	27.3	0
16	3151	27.4	0
16	3164	27.5	0
16	3177	27.6	0
16	3190	27.7	0
16	3203	27.8	0
16	3216	27.9	0
16	3229	28	0
16	3242	28.1	0.47237893054263
16	3255	28.2	0
16	3268	28.3	0
16	3281	28.4	0
16	3294	28.5	0
16	3307	28.6	0
16	3320	28.7	0
16	3333	28.8	0
16	3346	28.9	0
16	3359	29	0
16	3372	29.1	-0.81796991778537
16	3385	29.2	0
16	3398	29.3	0
16	3411	29.4	0
16	3424	29.5	0
16	3437	29.6	0
16	3450	29.7	0
16	3463	29.8	0
16	3476	29.9	0
16	3489	30	0
16	3502	30.1	-25.008380128859
16	3515	30.2	0
16	3528	30.3	0
16	3541	30.4	0
16	3554	30.5	0
16	3567	30.6	0
16	3580	30.7	0
16	3593	30.8	0
16	3606	30.9	0
16	3619	31	0
16	3632	31.1	-48.672729508486
16	3645	31.2	0
16	3658	31.3	0
16	3671	31.4	0
16	3684	31.5	0
16	3697	31.6	0
16	3710	31.7	0
16	3723	31.8	0
16	3736	31.9	0
16	3749	32	0
16	3762	32.1	18.284108760301
16	3775	32.2	0
16	3788	32.3	0
16	3801	32.4	0
16	3814	32.5	0
16	3827	32.6	0
16	3840	32.7	0
16	3853	32.8	0
16	3866	32.9	0
16	3879	33	0
16	3892	33.1	19.10755650932
16	3905	33.2	0
16	3918	33.3	0
16	3931	33.4	0
16	3944	33.5	0
16	3957	33.6	0
16	3970	33.7	0
16	3983	33.8	0
16	3996	33.9	0
16	4009	34	0
16	4022	34.1	18.776117463596
16	4035	34.2	0
16	4048	34.3	0
16	4061	34.4	0
16	4074	34.5	0
16	4087	34.6	0
16	4100	34.7	0
16	4113	34.8	0
16	4126	34.9	0
16	4139	35	0
16	4152	35.1	18.552882291234
16	4165	35.2	0
16	4178	35.3	0
16	4191	35.4	0
16	4204	35.5	0
16	4217	35.6	0
16	4230	35.7	0
16	4243	35.8	0
16	4256	35.9	0
16	4269	36	0
16	4282	36.1	0.24514687759801
16	4295	36.2	0
16	4308	36.3	0
16	4321	36.4	0
16	4334	36.5	0
16	4347	36.6	0
16	4360	36.7	0
16	4373	36.8	0
16	4386	36.9	0
16	4399	37	0
16	4412	37.1	-1.322651875671
16	4425	37.2	0
16	4438	37.3	0
16	4451	37.4	0
16	4464	37.5	0
16	4477	37.6	0
16	4490	37.7	0
16	4503	37.8	0
16	4516	37.9	0
16	4529	38	0
16	4542	38.1	0.078808926977221
16	4555	38.2	0
16	4568	38.3	0
16	4581	38.4	0
16	4594	38.5	0
16	4607	38.6	0
16	4620	38.7	0
16	4633	38.8	0
16	4646	38.9	0
16	4659	39	0
16	4672	39.1	0.59517690259963
16	4685	39.2	0
16	4698	39.3	0
16	4711	39.4	0
16	4724	39.5	0
16	4737	39.6	0
16	4750	39.7	0
16	4763	39.8	0
16	4776	39.9	0
16	4789	40	0
16	4802	40.1	-0.37972483038901
16	4815	40.2	0
16	4828	40.3	0
16	4841	40.4	0
16	4854	40.5	0
16	4867	40.6	0
16	4880	40.7	0
16	4893	40.8	0
16	4906	40.9	0
16	4919	41	0
16	4932	41.1	1.4180536824279
16	4945	41.2	0
16	4958	41.3	0
16	4971	41.4	0
16	4984	41.5	0
16	4997	41.6	0
16	5010	41.7	0
16	5023	41.8	0
16	5036	41.9	0
16	5049	42	0
16	5062	42.1	-1.3609890108928
16	5075	42.2	0
16	5088	42.3	0
16	5101	42.4	0
16	5114	42.5	0
16	5127	42.6	0
16	5140	42.7	0
16	5153	42.8	0
16	5166	42.9	0
16	5179	43	0
16	5192	43.1	0.38610448734836
16	5205	43.2	0
16	5218	43.3	0
16	5231	43.4	0
16	5244	43.5	0
16	5257	43.6	0
16	5270	43.7	0
16	5283	43.8	0
16	5296	43.9	0
16	5309	44	0
16	5322	44.1	-0.96485516568647
16	5335	44.2	0
16	5348	44.3	0
16	5361	44.4	0
16	5374	44.5	0
16	5387	44.6	0
16	5400	44.7	0
16	5413	44.8	0
16	5426	44.9	0
16	5439	45	0
16	5452	45.1	0.30180142680184
16	5465	45.2	0
16	5478	45.3	0
16	5491	45.4	0
16	5504	45.5	0
16	5517	45.6	0
16	5530	45.7	0
16	5543	45.8	0
16	5556	45.9	0
16	5569	46	0
16	5582	46.1	0.81514253653586
16	5595	46.2	0
16	5608	46.3	0
16	5621	46.4	0
16	5634	46.5	0
16	5647	46.6	0
16	5660	46.7	0
16	5673	46.8	0
16	5686	46.9	0
16	5699	47	0
16	5712	47.1	0.02645978005603
16	5725	47.2	0
16	5738	47.3	0
16	5751	47.4	0
16	5764	47.5	0
16	5777	47.6	0
16	5790	47.7	0
16	5803	47.8	0
16	5816	47.9	0
16	5829	48	0
16	5842	48.1	0.33160993177443
16	5855	48.2	0
16	5868	48.3	0
16	5881	48.4	0
16	5894	48.5	0
16	5907	48.6	0
16	5920	48.7	0
16	5933	48.8	0
16	5946	48.9	0
16	5959	49	0
16	5972	49.1	-0.93674283241853
16	5985	49.2	0
16	5998	49.3	0
16	6011	49.4	0
16	6024	49.5	0
16	6037	49.6	0
16	6050	49.7	0
16	6063	49.8	0
16	6076	49.9	0
16	6089	50	0
16	6102	50.1	0.026692814659341
16	6115	50.2	0
16	6128	50.3	0
16	6141	50.4	0
16	6154	50.5	0
16	6167	50.6	0
16	6180	50.7	0
16	6193	50.8	0
16	6206	50.9	0
16	6219	51	0
16	6232	51.1	-0.52207430498676
16	6245	51.2	0
16	6258	51.3	0
16	6271	51.4	0
16	6284	51.5	0
16	6297	51.6	0
16	6310	51.7	0
16	6323	51.8	0
16	6336	51.9	0
16	6349	52	0
16	6362	52.1	1.3786586578935
16	6375	52.2	0
16	6388	52.3	0
16	6401	52.4	0
16	6414	52.5	0
16	6427	52.6	0
16	6440	52.7	0
16	6453	52.8	0
16	6466	52.9	0
16	6479	53	0
16	6492	53.1	-1.3427352276631
16	6505	53.2	0
16	6518	53.3	0
16	6531	53.4	0
16	6544	53.5	0
16	6557	53.6	0
16	6570	53.7	0
16	6583	53.8	0
16	6596	53.9	0
16	6609	54	0
16	6622	54.1	0.44814413134009
16	6635	54.2	0
16	6648	54.3	0
16	6661	54.4	0
16	6674	54.5	0
16	6687	54.6	0
16	6700	54.7	0
16	6713	54.8	0
16	6726	54.9	0
16	6739	55	0
16	6752	55.1	-0.46126525988804
16	6765	55.2	0
16	6778	55.3	0
16	6791	55.4	0
16	6804	55.5	0
16	6817	55.6	0
16	6830	55.7	0
16	6843	55.8	0
16	6856	55.9	0
16	6869	56	0
16	6882	56.1	0.56500372150914
16	6895	56.2	0
16	6908	56.3	0
16	6921	56.4	0
16	6934	56.5	0
16	6947	56.6	0
16	6960	56.7	0
16	6973	56.8	0
16	6986	56.9	0
16	6999	57	0
16	7012	57.1	-0.13260034564883
16	7025	57.2	0
16	7038	57.3	0
16	7051	57.4	0
16	7064	57.5	0
16	7077	57.6	0
16	7090	57.7	0
16	7103	57.8	0
16	7116	57.9	0
16	7129	58	0
16	7142	58.1	0.5348792411387
16	7155	58.2	0
16	7168	58.3	0
16	7181	58.4	0
16	7194	58.5	0
16	7207	58.6	0
16	7220	58.7	0
16	7233	58.8	0
16	7246	58.9	0
16	7259	59	0
16	7272	59.1	-0.80009105289356
16	7285	59.2	0
16	7298	59.3	0
16	7311	59.4	0
16	7324	59.5	0
16	7337	59.6	0
16	7350	59.7	0
16	7363	59.8	0
16	7376	59.9	0
16	7389	60	0
16	7402	60.1	0.96683037886397
16	7415	60.2	0
16	7428	60.3	0
16	7441	60.4	0
16	7454	60.5	0
16	7467	60.6	0
16	7480	60.7	0
16	7493	60.8	0
16	7506	60.9	0
16	7519	61	0
16	7532	61.1	-0.68829324096441
16	7545	61.2	0
16	7558	61.3	0
16	7571	61.4	0
16	7584	61.5	0
16	7597	61.6	0
16	7610	61.7	0
16	7623	61.8	0
16	7636	61.9	0
16	7649	62	0
16	7662	62.1	0.63558765780181
16	7675	62.2	0
16	7688	62.3	0
16	7701	62.4	0
16	7714	62.5	0
16	7727	62.6	0
16	7740	62.7	0
16	7753	62.8	0
16	7766	62.9	0
16	7779	63	0
16	7792	63.1	0.30128220887855
16	7805	63.2	0
16	7818	63.3	0
16	7831	63.4	0
16	7844	63.5	0
16	7857	63.6	0
16	7870	63.7	0
16	7883	63.8	0
16	7896	63.9	0
16	7909	64	0
16	7922	64.1	0.3007153822109
16	7935	64.2	0
16	7948	64.3	0
16	7961	64.4	0
16	7974	64.5	0
16	7987	64.6	0
16	8000	64.7	0
16	8013	64.8	0
16	8026	64.9	0
16	8039	65	0
16	8052	65.1	-1.5209073587321
16	8065	65.2	0
16	8078	65.3	0
16	8091	65.4	0
16	8104	65.5	0
16	8117	65.6	0
16	8130	65.7	0
16	8143	65.8	0
16	8156	65.9	0
16	8169	66	0
16	8182	66.1	0.18059044890105
16	8195	66.2	0
16	8208	66.3	0
16	8221	66.4	0
16	8234	66.5	0
16	8247	66.6	0
16	8260	66.7	0
16	8273	66.8	0
16	8286	66.9	0
16	8299	67	0
16	8312	67.1	0.71344977663831
16	8325	67.2	0
16	8338	67.3	0
16	8351	67.4	0
16	8364	67.5	0
16	8377	67.6	0
16	8390	67.7	0
16	8403	67.8	0
16	8416	67.9	0
16	8429	68	0
16	8442	68.1	0.66134362807498
16	8455	68.2	0
16	8468	68.3	0
16	8481	68.4	0
16	8494	68.5	0
16	8507	68.6	0
16	8520	68.7	0
16	8533	68.8	0
16	8546	68.9	0
16	8559	69	0
16	8572	69.1	0.17407400021328
16	8585	69.2	0
16	8598	69.3	0
16	8611	69.4	0
16	8624	69.5	0
16	8637	69.6	0
16	8650	69.7	0
16	8663	69.8	0
16	8676	69.9	0
16	8689	70	0
16	8702	70.1	-0.27875880524515
16	8715	70.2	0
16	8728	70.3	0
16	8741	70.4	0
16	8754	70.5	0
16	8767	70.6	0
16	8780	70.7	0
16	8793	70.8	0
16	8806	70.9	0
16	8819	71	0
16	8832	71.1	-0.8823347715661
16	8845	71.2	0
16	8858	71.3	0
16	8871	71.4	0
16	8884	71.5	0
16	8897	71.6	0
16	8910	71.7	0
16	8923	71.8	0
16	8936	71.9	0
16	8949	72	0
16	8962	72.1	0.90426745451987
16	8975	72.2	0
16	8988	72.3	0
16	9001	72.4	0
16	9014	72.5	0
16	9027	72.6	0
16	9040	72.7	0
16	9053	72.8	0
16	9066	72.9	0
16	9079	73	0
16	9092	73.1	-0.074727680068456
16	9105	73.2	0
16	9118	73.3	0
16	9131	73.4	0
16	9144	73.5	0
16	9157	73.6	0
16	9170	73.7	0
16	9183	73.8	0
16	9196	73.9	0
16	9209	74	0
16	9222	74.1	-1.4811826390214
16	9235	74.2	0
16	9248	74.3	0
16	9261	74.4	0
16	9274	74.5	0
16	9287	74.6	0
16	9300	74.7	0
16	9313	74.8	0
16	9326	74.9	0
16	9339	75	0
16	9353	75.1	0.4515866683796
16	9366	75.2	0
16	9379	75.3	0
16	9392	75.4	0
16	9405	75.5	0
16	9418	75.6	0
16	9431	75.7	0
16	9444	75.8	0
16	9457	75.9	0
16	9470	76	0
16	9483	76.1	0.32454318739473
16	9496	76.2	0
16	9509	76.3	0
16	9522	76.4	0
16	9535	76.5	0
16	9548	76.6	0
16	9561	76.7	0
16	9574	76.8	0
16	9587	76.9	0
16	9600	77	0
16	9613	77.1	-8.315088875612
16	9626	77.2	0
16	9639	77.3	0
16	9652	77.4	0
16	9665	77.5	0
16	9678	77.6	0
16	9691	77.7	0
16	9704	77.8	0
16	9717	77.9	0
16	9730	78	0
16	9743	78.1	9.0523102898353
16	9756	78.2	0
16	9769	78.3	0
16	9782	78.4	0
16	9795	78.5	0
16	9808	78.6	0
16	9821	78.7	0
16	9834	78.8	0
16	9847	78.9	0
16	9860	79	0
16	9873	79.1	-0.89041579887271
16	9886	79.2	0
16	9899	79.3	0
16	9912	79.4	0
16	9925	79.5	0
16	9938	79.6	0
16	9951	79.7	0
16	9964	79.8	0
16	9977	79.9	0
16	9990	80	0
16	10003	80.1	-0.64758199267089
16	10016	80.2	0
16	10029	80.3	0
16	10042	80.4	0
16	10055	80.5	0
16	10068	80.6	0
16	10081	80.7	0
16	10094	80.8	0
16	10107	80.9	0
16	10120	81	0
16	10133	81.1	0.27298765257001
16	10146	81.2	0
16	10159	81.3	0
16	10172	81.4	0
16	10185	81.5	0
16	10198	81.6	0
16	10211	81.7	0
16	10224	81.8	0
16	10237	81.9	0
16	10250	82	0
16	10263	82.1	0.048067296389487
16	10276	82.2	0
16	10289	82.3	0
16	10302	82.4	0
16	10315	82.5	0
16	10328	82.6	0
16	10341	82.7	0
16	10354	82.8	0
16	10367	82.9	0
16	10380	83	0
16	10393	83.1	0.12171352887526
16	10406	83.2	0
16	10419	83.3	0
16	10432	83.4	0
16	10445	83.5	0
16	10458	83.6	0
16	10471	83.7	0
16	10484	83.8	0
16	10497	83.9	0
16	10510	84	0
16	10523	84.1	0.79297166364269
16	10536	84.2	0
16	10549	84.3	0
16	10562	84.4	0
16	10575	84.5	0
16	10588	84.6	0
16	10601	84.7	0
16	10614	84.8	0
16	10627	84.9	0
16	10640	85	0
16	10653	85.1	-0.79908569529653
16	10666	85.2	0
16	10679	85.3	0
16	10692	85.4	0
16	10705	85.5	0
16	10718	85.6	0
16	10731	85.7	0
16	10744	85.8	0
16	10757	85.9	0
16	10770	86	0
16	10783	86.1	0.95085065439344
16	10796	86.2	0
16	10809	86.3	0
16	10822	86.4	0
16	10835	86.5	0
16	10848	86.6	0
16	10861	86.7	0
16	10874	86.8	0
16	10887	86.9	0
16	10900	87	0
16	10913	87.1	-0.032087382394828
16	10926	87.2	0
16	10939	87.3	0
16	10952	87.4	0
16	10965	87.5	0
16	10978	87.6	0
16	10991	87.7	0
16	11004	87.8	0
16	11017	87.9	0
16	11030	88	0
16	11043	88.1	-0.77549533080308
16	11056	88.2	0
16	11069	88.3	0
16	11082	88.4	0
16	11095	88.5	0
16	11108	88.6	0
16	11121	88.7	0
16	11134	88.8	0
16	11147	88.9	0
16	11160	89	0
16	11173	89.1	0.99034200143068
16	11186	89.2	0
16	11199	89.3	0
16	11212	89.4	0
16	11225	89.5	0
16	11238	89.6	0
16	11251	89.7	0
16	11264	89.8	0
16	11277	89.9	0
16	11290	90	0
16	11303	90.1	-0.59353771666064
16	11316	90.2	0
16	11329	90.3	0
16	11342	90.4	0
16	11355	90.5	0
16	11368	90.6	0
16	11381	90.7	0
16	11394	90.8	0
16	11407	90.9	0
16	11420	91	0
16	11433	91.1	0.64188067801297
16	11446	91.2	0
16	11459	91.3	0
16	11472	91.4	0
16	11485	91.5	0
16	11498	91.6	0
16	11511	91.7	0
16	11524	91.8	0
16	11537	91.9	0
16	11550	92	0
16	11563	92.1	-1.6071126814932
16	11576	92.2	0
16	11589	92.3	0
16	11602	92.4	0
16	11615	92.5	0
16	11628	92.6	0
16	11641	92.7	0
16	11654	92.8	0
16	11667	92.9	0
16	11680	93	0
16	11693	93.1	-0.12166818650439
16	11706	93.2	0
16	11719	93.3	0
16	11732	93.4	0
16	11745	93.5	0
16	11758	93.6	0
16	11771	93.7	0
16	11784	93.8	0
16	11797	93.9	0
16	11810	94	0
16	11823	94.1	0.98206761525944
16	11836	94.2	0
16	11849	94.3	0
16	11862	94.4	0
16	11875	94.5	0
16	11888	94.6	0
16	11901	94.7	0
16	11914	94.8	0
16	11927	94.9	0
16	11940	95	0
16	11953	95.1	0.79718031175434
16	11966	95.2	0
16	11979	95.3	0
16	11992	95.4	0
16	12005	95.5	0
16	12018	95.6	0
16	12031	95.7	0
16	12044	95.8	0
16	12057	95.9	0
16	12070	96	0
16	12083	96.1	-0.52923381980508
16	12096	96.2	0
16	12109	96.3	0
16	12122	96.4	0
16	12135	96.5	0
16	12148	96.6	0
16	12161	96.7	0
16	12174	96.8	0
16	12187	96.9	0
16	12200	97	0
16	12213	97.1	-0.38505586935207
16	12226	97.2	0
16	12239	97.3	0
16	12252	97.4	0
16	12265	97.5	0
16	12278	97.6	0
16	12291	97.7	0
16	12304	97.8	0
16	12317	97.9	0
16	12330	98	0
16	12343	98.1	-0.38554786192254
16	12356	98.2	0
16	12369	98.3	0
16	12382	98.4	0
16	12395	98.5	0
16	12408	98.6	0
16	12421	98.7	0
16	12434	98.8	0
16	12447	98.9	0
16	12460	99	0
16	12473	99.1	1.0586319481954
16	12486	99.2	0
16	12499	99.3	0
16	12512	99.4	0
16	12525	99.5	0
16	12538	99.6	0
16	12551	99.7	0
16	12564	99.8	0
16	12577	99.9	0
16	12590	100	0
16	12603	100.1	0.054470967501405
16	12616	100.2	0
16	12629	100.3	0
16	12642	100.4	0
16	12655	100.5	0
16	12668	100.6	0
16	12681	100.7	0
16	12694	100.8	0
16	12707	100.9	0
16	12720	101	0
16	12733	101.1	-1.1731322202832
16	12746	101.2	0
16	12759	101.3	0
16	12772	101.4	0
16	12785	101.5	0
16	12798	101.6	0
16	12811	101.7	0
16	12824	101.8	0
16	12837	101.9	0
16	12850	102	0
16	12863	102.1	-0.2529512657784
16	12876	102.2	0
16	12889	102.3	0
16	12902	102.4	0
16	12915	102.5	0
16	12928	102.6	0
16	12941	102.7	0
16	12954	102.8	0
16	12967	102.9	0
16	12980	103	0
16	12993	103.1	0.34915928402915
16	13006	103.2	0
16	13019	103.3	0
16	13032	103.4	0
16	13045	103.5	0
16	13058	103.6	0
16	13071	103.7	0
16	13084	103.8	0
16	13097	103.9	0
16	13110	104	0
16	13123	104.1	0.51311458554119
16	13136	104.2	0
16	13149	104.3	0
16	13162	104.4	0
16	13175	104.5	0
16	13188	104.6	0
16	13201	104.7	0
16	13214	104.8	0
16	13227	104.9	0
16	13240	105	0
16	13253	105.1	-0.38798346277327
16	13266	105.2	0
16	13279	105.3	0
16	13292	105.4	0
16	13305	105.5	0
16	13318	105.6	0
16	13331	105.7	0
16	13344	105.8	0
16	13357	105.9	0
16	13370	106	0
16	13383	106.1	-0.4226855863817
16	13396	106.2	0
16	13409	106.3	0
16	13422	106.4	0
16	13435	106.5	0
16	13448	106.6	0
16	13461	106.7	0
16	13474	106.8	0
16	13487	106.9	0
16	13500	107	0
16	13513	107.1	0.87207808624953
16	13526	107.2	0
16	13539	107.3	0
16	13552	107.4	0
16	13565	107.5	0
16	13578	107.6	0
16	13591	107.7	0
16	13604	107.8	0
16	13617	107.9	0
16	13630	108	0
16	13643	108.1	-1.0989231280982
16	13656	108.2	0
16	13669	108.3	0
16	13682	108.4	0
16	13695	108.5	0
16	13708	108.6	0
16	13721	108.7	0
16	13734	108.8	0
16	13747	108.9	0
16	13760	109	0
16	13773	109.1	1.475584521424
16	13786	109.2	0
16	13799	109.3	0
16	13812	109.4	0
16	13825	109.5	0
16	13838	109.6	0
16	13851	109.7	0
16	13864	109.8	0
16	13877	109.9	0
16	13890	110	0
16	13903	110.1	-0.35701664676891
16	13916	110.2	0
16	13929	110.3	0
[...]
0	23082	180.7	1824.1233326917
0	23095	180.8	1824.1233326917
0	23108	180.9	1824.1233326917
0	23121	181	1824.1233326917
0	23134	181.1	1836.7972005258
0	23147	181.2	1836.7972005258
0	23160	181.3	1836.7972005258
0	23173	181.4	1836.7972005258
0	23186	181.5	1836.7972005258
0	23199	181.6	1836.7972005258
0	23212	181.7	1836.7972005258
0	23225	181.8	1836.7972005258
0	23238	181.9	1836.7972005258
0	23251	182	1836.7972005258
0	23264	182.1	1849.0552697246
0	23277	182.2	1849.0552697246
0	23290	182.3	1849.0552697246
0	23303	182.4	1849.0552697246
0	23316	182.5	1849.0552697246
0	23329	182.6	1849.0552697246
0	23342	182.7	1849.0552697246
0	23355	182.8	1849.0552697246
0	23368	182.9	1849.0552697246
0	23381	183	1849.0552697246
0	23394	183.1	1861.0538200479
0	23407	183.2	1861.0538200479
0	23420	183.3	1861.0538200479
0	23433	183.4	1861.0538200479
0	23446	183.5	1861.0538200479
0	23459	183.6	1861.0538200479
0	23472	183.7	1861.0538200479
0	23485	183.8	1861.0538200479
0	23498	183.9	1861.0538200479
0	23511	184	1861.0538200479
0	23524	184.1	1873.0426514987
0	23537	184.2	1873.0426514987
0	23550	184.3	1873.0426514987
0	23563	184.4	1873.0426514987
0	23576	184.5	1873.0426514987
0	23589	184.6	1873.0426514987
0	23602	184.7	1873.0426514987
0	23615	184.8	1873.0426514987
0	23628	184.9	1873.0426514987
0	23641	185	1873.0426514987
0	23654	185.1	1884.2579694375
0	23667	185.2	1884.2579694375
0	23680	185.3	1884.2579694375
0	23693	185.4	1884.2579694375
0	23706	185.5	1884.2579694375
0	23719	185.6	1884.2579694375
0	23732	185.7	1884.2579694375
0	23745	185.8	1884.2579694375
0	23758	185.9	1884.2579694375
0	23771	186	1884.2579694375
0	23784	186.1	1894.0407410434
0	23797	186.2	1894.0407410434
0	23810	186.3	1894.0407410434
0	23823	186.4	1894.0407410434
0	23836	186.5	1894.0407410434
0	23849	186.6	1894.0407410434
0	23862	186.7	1894.0407410434
0	23875	186.8	1894.0407410434
0	23888	186.9	1894.0407410434
0	23901	187	1894.0407410434
0	23914	187.1	1901.8059481057
0	23927	187.2	1901.8059481057
0	23940	187.3	1901.8059481057
0	23953	187.4	1901.8059481057
0	23966	187.5	1901.8059481057
0	23979	187.6	1901.8059481057
0	23992	187.7	1901.8059481057
0	24005	187.8	1901.8059481057
0	24018	187.9	1901.8059481057
0	24031	188	1901.8059481057
0	24044	188.1	1908.3725295559
0	24057	188.2	1908.3725295559
0	24070	188.3	1908.3725295559
0	24083	188.4	1908.3725295559
0	24096	188.5	1908.3725295559
0	24109	188.6	1908.3725295559
0	24122	188.7	1908.3725295559
0	24135	188.8	1908.3725295559
0	24148	188.9	1908.3725295559
0	24161	189	1908.3725295559
0	24174	189.1	1916.1284388039
0	24187	189.2	1916.1284388039
0	24200	189.3	1916.1284388039
0	24213	189.4	1916.1284388039
0	24226	189.5	1916.1284388039
0	24239	189.6	1916.1284388039
0	24252	189.7	1916.1284388039
0	24265	189.8	1916.1284388039
0	24278	189.9	1916.1284388039
0	24291	190	1916.1284388039
0	24304	190.1	1924.4866619183
0	24317	190.2	1924.4866619183
0	24330	190.3	1924.4866619183
0	24343	190.4	1924.4866619183
0	24356	190.5	1924.4866619183
0	24369	190.6	1924.4866619183
0	24382	190.7	1924.4866619183
0	24395	190.8	1924.4866619183
0	24408	190.9	1924.4866619183
0	24421	191	1924.4866619183
0	24434	191.1	1932.8293560684
0	24447	191.2	1932.8293560684
0	24460	191.3	1932.8293560684
0	24473	191.4	1932.8293560684
0	24486	191.5	1932.8293560684
0	24499	191.6	1932.8293560684
0	24512	191.7	1932.8293560684
0	24525	191.8	1932.8293560684
0	24538	191.9	1932.8293560684
0	24551	192	1932.8293560684
0	24564	192.1	1941.1478251844
0	24577	192.2	1941.1478251844
0	24590	192.3	1941.1478251844
0	24603	192.4	1941.1478251844
0	24616	192.5	1941.1478251844
0	24629	192.6	1941.1478251844
0	24642	192.7	1941.1478251844
0	24655	192.8	1941.1478251844
0	24668	192.9	1941.1478251844
0	24681	193	1941.1478251844
0	24694	193.1	1951.331498205
0	24707	193.2	1951.331498205
0	24720	193.3	1951.331498205
0	24733	193.4	1951.331498205
0	24746	193.5	1951.331498205
0	24759	193.6	1951.331498205
0	24772	193.7	1951.331498205
0	24785	193.8	1951.331498205
0	24798	193.9	1951.331498205
0	24811	194	1951.331498205
0	24824	194.1	1964.0691970282
0	24837	194.2	1964.0691970282
0	24850	194.3	1964.0691970282
0	24863	194.4	1964.0691970282
0	24876	194.5	1964.0691970282
0	24889	194.6	1964.0691970282
0	24902	194.7	1964.0691970282
0	24915	194.8	1964.0691970282
0	24928	194.9	1964.0691970282
0	24941	195	1964.0691970282
0	24954	195.1	1977.11107628
0	24967	195.2	1977.11107628
0	24980	195.3	1977.11107628
0	24993	195.4	1977.11107628
0	25006	195.5	1977.11107628
0	25019	195.6	1977.11107628
0	25032	195.7	1977.11107628
0	25045	195.8	1977.11107628
0	25058	195.9	1977.11107628
0	25071	196	1977.11107628
0	25084	196.1	1990.1849371119
0	25097	196.2	1990.1849371119
0	25110	196.3	1990.1849371119
0	25123	196.4	1990.1849371119
0	25136	196.5	1990.1849371119
0	25149	196.6	1990.1849371119
0	25162	196.7	1990.1849371119
0	25175	196.8	1990.1849371119
0	25188	196.9	1990.1849371119
0	25201	197	1990.1849371119
0	25214	197.1	2004.0471683375
0	25227	197.2	2004.0471683375
0	25240	197.3	2004.0471683375
0	25253	197.4	2004.0471683375
0	25266	197.5	2004.0471683375
0	25279	197.6	2004.0471683375
0	25292	197.7	2004.0471683375
0	25305	197.8	2004.0471683375
0	25318	197.9	2004.0471683375
0	25331	198	2004.0471683375
0	25344	198.1	2018.0107583586
0	25357	198.2	2018.0107583586
0	25370	198.3	2018.0107583586
0	25383	198.4	2018.0107583586
0	25396	198.5	2018.0107583586
0	25409	198.6	2018.0107583586
0	25422	198.7	2018.0107583586
0	25435	198.8	2018.0107583586
0	25448	198.9	2018.0107583586
0	25461	199	2018.0107583586
0	25474	199.1	2032.0982909853
0	25485	199.2	2032.0982909853
0	25496	199.3	2032.0982909853
0	25507	199.4	2032.0982909853
0	25518	199.5	2032.0982909853
0	25529	199.6	2032.0982909853
0	25540	199.7	2032.0982909853
0	25551	199.8	2032.0982909853
0	25562	199.9	2032.0982909853
0	25573	200	2032.0982909853
0	25584	200.1	2047.6991148587
0	25595	200.2	2047.6991148587
0	25606	200.3	2047.6991148587
0	25617	200.4	2047.6991148587
0	25628	200.5	2047.6991148587
0	25639	200.6	2047.6991148587
0	25650	200.7	2047.6991148587
0	25661	200.8	2047.6991148587
0	25672	200.9	2047.6991148587
0	25683	201	2047.6991148587
0	25694	201.1	2063.6217784702
0	25705	201.2	2063.6217784702
0	25716	201.3	2063.6217784702
0	25727	201.4	2063.6217784702
0	25738	201.5	2063.6217784702
0	25749	201.6	2063.6217784702
0	25760	201.7	2063.6217784702
0	25771	201.8	2063.6217784702
0	25782	201.9	2063.6217784702
0	25793	202	2063.6217784702
0	25804	202.1	2079.5369002398
0	25815	202.2	2079.5369002398
0	25826	202.3	2079.5369002398
0	25837	202.4	2079.5369002398
0	25848	202.5	2079.5369002398
0	25859	202.6	2079.5369002398
0	25870	202.7	2079.5369002398
0	25881	202.8	2079.5369002398
0	25892	202.9	2079.5369002398
0	25903	203	2079.5369002398
0	25914	203.1	2095.4969814023
0	25923	203.2	2095.4969814023
0	25932	203.3	2095.4969814023
0	25941	203.4	2095.4969814023
0	25950	203.5	2095.4969814023
0	25959	203.6	2095.4969814023
0	25968	203.7	2095.4969814023
0	25977	203.8	2095.4969814023
0	25986	203.9	2095.4969814023
0	25995	204	2095.4969814023
0	26004	204.1	2111.4120599444
0	26013	204.2	2111.4120599444
0	26022	204.3	2111.4120599444
0	26031	204.4	2111.4120599444
0	26040	204.5	2111.4120599444
0	26049	204.6	2111.4120599444
0	26058	204.7	2111.4120599444
0	26067	204.8	2111.4120599444
0	26076	204.9	2111.4120599444
0	26085	205	2111.4120599444
0	26094	205.1	2127.3419547054
0	26103	205.2	2127.3419547054
0	26112	205.3	2127.3419547054
0	26121	205.4	2127.3419547054
0	26130	205.5	2127.3419547054
0	26139	205.6	2127.3419547054
0	26148	205.7	2127.3419547054
0	26157	205.8	2127.3419547054
0	26166	205.9	2127.3419547054
0	26175	206	2127.3419547054
0	26184	206.1	2143.185189233
0	26193	206.2	2143.185189233
0	26202	206.3	2143.185189233
0	26211	206.4	2143.185189233
0	26220	206.5	2143.185189233
0	26229	206.6	2143.185189233
0	26238	206.7	2143.185189233
0	26247	206.8	2143.185189233
0	26256	206.9	2143.185189233
0	26265	207	2143.185189233
0	26274	207.1	2159.1118211714
0	26283	207.2	2159.1118211714
0	26292	207.3	2159.1118211714
0	26301	207.4	2159.1118211714
0	26310	207.5	2159.1118211714
0	26319	207.6	2159.1118211714
0	26328	207.7	2159.1118211714
0	26337	207.8	2159.1118211714
0	26346	207.9	2159.1118211714
0	26355	208	2159.1118211714
0	26364	208.1	2174.9313441749
0	26373	208.2	2174.9313441749
0	26382	208.3	2174.9313441749
0	26391	208.4	2174.9313441749
0	26400	208.5	2174.9313441749
0	26409	208.6	2174.9313441749
0	26418	208.7	2174.9313441749
0	26427	208.8	2174.9313441749
0	26436	208.9	2174.9313441749
0	26445	209	2174.9313441749
0	26454	209.1	2190.7017850285
0	26463	209.2	2190.7017850285
0	26472	209.3	2190.7017850285
0	26481	209.4	2190.7017850285
0	26490	209.5	2190.7017850285
0	26499	209.6	2190.7017850285
0	26508	209.7	2190.7017850285
0	26517	209.8	2190.7017850285
0	26526	209.9	2190.7017850285
0	26535	210	2190.7017850285
0	26544	210.1	2206.6437068199
0	26553	210.2	2206.6437068199
0	26562	210.3	2206.6437068199
0	26571	210.4	2206.6437068199
0	26580	210.5	2206.6437068199
0	26589	210.6	2206.6437068199
0	26598	210.7	2206.6437068199
0	26607	210.8	2206.6437068199
0	26616	210.9	2206.6437068199
0	26625	211	2206.6437068199
0	26634	211.1	2222.5269128956
0	26643	211.2	2222.5269128956
0	26652	211.3	2222.5269128956
0	26661	211.4	2222.5269128956
0	26670	211.5	2222.5269128956
0	26679	211.6	2222.5269128956
0	26688	211.7	2222.5269128956
0	26697	211.8	2222.5269128956
0	26706	211.9	2222.5269128956
0	26715	212	2222.5269128956
0	26724	212.1	2238.3987802726
0	26733	212.2	2238.3987802726
0	26742	212.3	2238.3987802726
0	26751	212.4	2238.3987802726
0	26760	212.5	2238.3987802726
0	26769	212.6	2238.3987802726
0	26778	212.7	2238.3987802726
0	26787	212.8	2238.3987802726
0	26796	212.9	2238.3987802726
0	26805	213	2238.3987802726
0	26814	213.1	2254.2524149886
0	26823	213.2	2254.2524149886
0	26832	213.3	2254.2524149886
0	26841	213.4	2254.2524149886
0	26850	213.5	2254.2524149886
0	26859	213.6	2254.2524149886
0	26868	213.7	2254.2524149886
0	26877	213.8	2254.2524149886
0	26886	213.9	2254.2524149886
0	26895	214	2254.2524149886
0	26904	214.1	2270.0841983699
0	26913	214.2	2270.0841983699
0	26922	214.3	2270.0841983699
0	26931	214.4	2270.0841983699
0	26940	214.5	2270.0841983699
0	26949	214.6	2270.0841983699
0	26958	214.7	2270.0841983699
0	26967	214.8	2270.0841983699
0	26976	214.9	2270.0841983699
0	26985	215	2270.0841983699
0	26994	215.1	2286.0470879224
0	27003	215.2	2286.0470879224
0	27012	215.3	2286.0470879224
0	27021	215.4	2286.0470879224
0	27030	215.5	2286.0470879224
0	27039	215.6	2286.0470879224
0	27048	215.7	2286.0470879224
0	27057	215.8	2286.0470879224
0	27066	215.9	2286.0470879224
0	27075	216	2286.0470879224
0	27084	216.1	2300.8227662725
0	27091	216.2	2300.8227662725
0	27098	216.3	2300.8227662725
0	27105	216.4	2300.8227662725
0	27112	216.5	2300.8227662725
0	27119	216.6	2300.8227662725
0	27126	216.7	2300.8227662725
0	27133	216.8	2300.8227662725
0	27140	216.9	2300.8227662725
0	27147	217	2300.8227662725
0	27154	217.1	2316.7095449561
0	27161	217.2	2316.7095449561
0	27168	217.3	2316.7095449561
0	27175	217.4	2316.7095449561
0	27182	217.5	2316.7095449561
0	27189	217.6	2316.7095449561
0	27196	217.7	2316.7095449561
0	27203	217.8	2316.7095449561
0	27210	217.9	2316.7095449561
0	27217	218	2316.7095449561
0	27224	218.1	2330.3711010302
0	27231	218.2	2330.3711010302
0	27238	218.3	2330.3711010302
0	27245	218.4	2330.3711010302
0	27252	218.5	2330.3711010302
0	27259	218.6	2330.3711010302
0	27266	218.7	2330.3711010302
0	27273	218.8	2330.3711010302
0	27280	218.9	2330.3711010302
0	27287	219	2330.3711010302
0	27294	219.1	2339.2209917212
0	27299	219.2	2339.2209917212
0	27304	219.3	2339.2209917212
0	27309	219.4	2339.2209917212
0	27314	219.5	2339.2209917212
0	27319	219.6	2339.2209917212
0	27324	219.7	2339.2209917212
0	27329	219.8	2339.2209917212
0	27334	219.9	2339.2209917212
0	27339	220	2339.2209917212
0	27344	220.1	2350.0272619213
0	27349	220.2	2350.0272619213
0	27354	220.3	2350.0272619213
0	27359	220.4	2350.0272619213
0	27364	220.5	2350.0272619213
0	27369	220.6	2350.0272619213
0	27374	220.7	2350.0272619213
0	27379	220.8	2350.0272619213
0	27384	220.9	2350.0272619213
0	27389	221	2350.0272619213
0	27394	221.1	2362.670031184
0	27399	221.2	2362.670031184
0	27404	221.3	2362.670031184
0	27409	221.4	2362.670031184
0	27414	221.5	2362.670031184
0	27419	221.6	2362.670031184
0	27424	221.7	2362.670031184
0	27429	221.8	2362.670031184
0	27434	221.9	2362.670031184
0	27439	222	2362.670031184
0	27444	222.1	2377.2370002591
0	27449	222.2	2377.2370002591
0	27454	222.3	2377.2370002591
0	27459	222.4	2377.2370002591
0	27464	222.5	2377.2370002591
0	27469	222.6	2377.2370002591
0	27474	222.7	2377.2370002591
0	27479	222.8	2377.2370002591
0	27484	222.9	2377.2370002591
0	27489	223	2377.2370002591
0	27494	223.1	2393.1483449222
0	27497	223.2	2393.1483449222
0	27500	223.3	2393.1483449222
0	27503	223.4	2393.1483449222
0	27506	223.5	2393.1483449222
0	27509	223.6	2393.1483449222
0	27512	223.7	2393.1483449222
0	27515	223.8	2393.1483449222
0	27518	223.9	2393.1483449222
0	27521	224	2393.1483449222
0	27524	224.1	2408.9443168776
0	27527	224.2	2408.9443168776
0	27530	224.3	2408.9443168776
0	27533	224.4	2408.9443168776
0	27536	224.5	2408.9443168776
0	27539	224.6	2408.9443168776
0	27542	224.7	2408.9443168776
0	27545	224.8	2408.9443168776
0	27548	224.9	2408.9443168776
0	27551	225	2408.9443168776
0	27554	225.1	2424.70292221
0	27557	225.2	2424.70292221
0	27560	225.3	2424.70292221
0	27563	225.4	2424.70292221
0	27566	225.5	2424.70292221
0	27569	225.6	2424.70292221
0	27572	225.7	2424.70292221
0	27575	225.8	2424.70292221
0	27578	225.9	2424.70292221
0	27581	226	2424.70292221
0	27584	226.1	2440.4597563884
0	27587	226.2	2440.4597563884
0	27590	226.3	2440.4597563884
0	27593	226.4	2440.4597563884
0	27596	226.5	2440.4597563884
0	27599	226.6	2440.4597563884
0	27602	226.7	2440.4597563884
0	27605	226.8	2440.4597563884
0	27608	226.9	2440.4597563884
0	27611	227	2440.4597563884
0	27614	227.1	2456.4030837758
0	27617	227.2	2456.4030837758
0	27620	227.3	2456.4030837758
0	27623	227.4	2456.4030837758
0	27626	227.5	2456.4030837758
0	27629	227.6	2456.4030837758
0	27632	227.7	2456.4030837758
0	27635	227.8	2456.4030837758
0	27638	227.9	2456.4030837758
0	27641	228	2456.4030837758
0	27644	228.1	2472.215456162
0	27647	228.2	2472.215456162
0	27650	228.3	2472.215456162
0	27653	228.4	2472.215456162
0	27656	228.5	2472.215456162
0	27659	228.6	2472.215456162
0	27662	228.7	2472.215456162
0	27665	228.8	2472.215456162
0	27668	228.9	2472.215456162
0	27671	229	2472.215456162
0	27674	229.1	2488.0571030765
0	27677	229.2	2488.0571030765
0	27680	229.3	2488.0571030765
0	27683	229.4	2488.0571030765
0	27686	229.5	2488.0571030765
0	27689	229.6	2488.0571030765
0	27692	229.7	2488.0571030765
0	27695	229.8	2488.0571030765
0	27698	229.9	2488.0571030765
0	27701	230	2488.0571030765
0	27704	230.1	2504.0230480686
0	27707	230.2	2504.0230480686
0	27710	230.3	2504.0230480686
0	27713	230.4	2504.0230480686
0	27716	230.5	2504.0230480686
0	27719	230.6	2504.0230480686
0	27722	230.7	2504.0230480686
0	27725	230.8	2504.0230480686
0	27728	230.9	2504.0230480686
0	27731	231	2504.0230480686
0	27734	231.1	2520.0110420661
0	27737	231.2	2520.0110420661
0	27740	231.3	2520.0110420661
0	27743	231.4	2520.0110420661
0	27746	231.5	2520.0110420661
0	27749	231.6	2520.0110420661
0	27752	231.7	2520.0110420661
0	27755	231.8	2520.0110420661
0	27758	231.9	2520.0110420661
0	27761	232	2520.0110420661
0	27764	232.1	2536.2159671306
0	27767	232.2	2536.2159671306
0	27770	232.3	2536.2159671306
0	27773	232.4	2536.2159671306
0	27776	232.5	2536.2159671306
0	27779	232.6	2536.2159671306
0	27782	232.7	2536.2159671306
0	27785	232.8	2536.2159671306
0	27788	232.9	2536.2159671306
0	27791	233	2536.2159671306
0	27794	233.1	2552.1185654992
0	27797	233.2	2552.1185654992
0	27800	233.3	2552.1185654992
0	27803	233.4	2552.1185654992
0	27806	233.5	2552.1185654992
0	27809	233.6	2552.1185654992
0	27812	233.7	2552.1185654992
0	27815	233.8	2552.1185654992
0	27818	233.9	2552.1185654992
0	27821	234	2552.1185654992
0	27824	234.1	2568.2413942027
0	27827	234.2	2568.2413942027
0	27830	234.3	2568.2413942027
0	27833	234.4	2568.2413942027
0	27836	234.5	2568.2413942027
0	27839	234.6	2568.2413942027
0	27842	234.7	2568.2413942027
0	27845	234.8	2568.2413942027
0	27848	234.9	2568.2413942027
0	27851	235	2568.2413942027
0	27854	235.1	2584.3580209619
0	27857	235.2	2584.3580209619
0	27860	235.3	2584.3580209619
0	27863	235.4	2584.3580209619
0	27866	235.5	2584.3580209619
0	27869	235.6	2584.3580209619
0	27872	235.7	2584.3580209619
0	27875	235.8	2584.3580209619
0	27878	235.9	2584.3580209619
0	27881	236	2584.3580209619
0	27884	236.1	2600.4349358561
0	27887	236.2	2600.4349358561
0	27890	236.3	2600.4349358561
0	27893	236.4	2600.4349358561
0	27896	236.5	2600.4349358561
0	27899	236.6	2600.4349358561
0	27902	236.7	2600.4349358561
0	27905	236.8	2600.4349358561
0	27908	236.9	2600.4349358561
0	27911	237	2600.4349358561
0	27914	237.1	2616.3380955574
0	27917	237.2	2616.3380955574
0	27920	237.3	2616.3380955574
0	27923	237.4	2616.3380955574
0	27926	237.5	2616.3380955574
0	27929	237.6	2616.3380955574
0	27932	237.7	2616.3380955574
0	27935	237.8	2616.3380955574
0	27938	237.9	2616.3380955574
0	27941	238	2616.3380955574
0	27944	238.1	2632.2817727278
0	27947	238.2	2632.2817727278
0	27950	238.3	2632.2817727278
0	27953	238.4	2632.2817727278
0	27956	238.5	2632.2817727278
0	27959	238.6	2632.2817727278
0	27962	238.7	2632.2817727278
0	27965	238.8	2632.2817727278
0	27968	238.9	2632.2817727278
0	27971	239	2632.2817727278
0	27974	239.1	2647.8687416847
0	27977	239.2	2647.8687416847
0	27980	239.3	2647.8687416847
0	27983	239.4	2647.8687416847
0	27986	239.5	2647.8687416847
0	27989	239.6	2647.8687416847
0	27992	239.7	2647.8687416847
0	27995	239.8	2647.8687416847
0	27998	239.9	2647.8687416847
0	28001	240	2647.8687416847
0	28004	240.1	2663.0516862069
0	28007	240.2	2663.0516862069
0	28010	240.3	2663.0516862069
0	28013	240.4	2663.0516862069
0	28016	240.5	2663.0516862069
0	28019	240.6	2663.0516862069
0	28022	240.7	2663.0516862069
0	28025	240.8	2663.0516862069
0	28028	240.9	2663.0516862069
0	28031	241	2663.0516862069
0	28034	241.1	2677.9228321626
0	28037	241.2	2677.9228321626
0	28040	241.3	2677.9228321626
0	28043	241.4	2677.9228321626
0	28046	241.5	2677.9228321626
0	28049	241.6	2677.9228321626
0	28052	241.7	2677.9228321626
0	28055	241.8	2677.9228321626
0	28058	241.9	2677.9228321626
0	28061	242	2677.9228321626
0	28064	242.1	2692.5507450784
0	28067	242.2	2692.5507450784
0	28070	242.3	2692.5507450784
0	28073	242.4	2692.5507450784
0	28076	242.5	2692.5507450784
0	28079	242.6	2692.5507450784
0	28082	242.7	2692.5507450784
0	28085	242.8	2692.5507450784
0	28088	242.9	2692.5507450784
0	28091	243	2692.5507450784
0	28094	243.1	2707.078301848
0	28097	243.2	2707.078301848
0	28100	243.3	2707.078301848
0	28103	243.4	2707.078301848
0	28106	243.5	2707.078301848
0	28109	243.6	2707.078301848
0	28112	243.7	2707.078301848
0	28115	243.8	2707.078301848
0	28118	243.9	2707.078301848
0	28121	244	2707.078301848
0	28124	244.1	2721.6084417516
0	28127	244.2	2721.6084417516
0	28130	244.3	2721.6084417516
0	28133	244.4	2721.6084417516
0	28136	244.5	2721.6084417516
0	28139	244.6	2721.6084417516
0	28142	244.7	2721.6084417516
0	28145	244.8	2721.6084417516
0	28148	244.9	2721.6084417516
0	28151	245	2721.6084417516
0	28154	245.1	2736.1962671056
0	28157	245.2	2736.1962671056
0	28160	245.3	2736.1962671056
0	28163	245.4	2736.1962671056
0	28166	245.5	2736.1962671056
0	28169	245.6	2736.1962671056
0	28172	245.7	2736.1962671056
0	28175	245.8	2736.1962671056
0	28178	245.9	2736.1962671056
0	28181	246	2736.1962671056
0	28184	246.1	2750.7745323005
0	28187	246.2	2750.7745323005
0	28190	246.3	2750.7745323005
0	28193	246.4	2750.7745323005
0	28196	246.5	2750.7745323005
0	28199	246.6	2750.7745323005
0	28202	246.7	2750.7745323005
0	28205	246.8	2750.7745323005
0	28208	246.9	2750.7745323005
0	28211	247	2750.7745323005
0	28214	247.1	2765.3569798388
0	28217	247.2	2765.3569798388
0	28220	247.3	2765.3569798388
0	28223	247.4	2765.3569798388
0	28226	247.5	2765.3569798388
0	28229	247.6	2765.3569798388
0	28232	247.7	2765.3569798388
0	28235	247.8	2765.3569798388
0	28238	247.9	2765.3569798388
0	28241	248	2765.3569798388

