version 2
run Cenario2-0-20241207-17:10:57-18737
attr configname Cenario2
attr datetime 20241207-17:10:57
attr experiment Cenario2
attr inifile icarqoc.ini
attr iterationvars ""
attr iterationvarsf ""
attr measurement ""
attr network org.car2x.veins.modules.application.icarnew.IcarScenario
attr processid 18737
attr repetition 0
attr replication #0
attr resultdir results
attr runnumber 0
attr seedset 0
param *.manager.launchConfig "xmldoc(\"./cenario2.launchd.xml\")"
param *.playgroundSizeX 10500m
param *.playgroundSizeY 10500m
param *.playgroundSizeZ 50m
param *.node[*].applType "\"Icarqoc\""
param *.node[*].appl.maxSpeedRoute0 41.67
param *.node[*].appl.maxSpeedRoute1 41.67
param *.node[*].appl.integratedScenario false
param *.icarParameters.vehicleAmount 100
param *.icarParameters.simulationDataheaderLine true
param *.icarParameters.appTypeId 100
param *.icarParameters.deliveryDelay 5
param *.icarParameters.traceChangedMobility true
param *.icarParameters.timeToLive 2s
param *.icarParameters.loadPeriodApp 0
param *.icarParameters.perforMesurementPeriod 1
param *.icarParameters.mobilityPeriod 0
param *.icarParameters.observation "\"default\""
param *.icarParameters.lostMessageRate 0
param *.icarParameters.monitorPeriod 0.5
param **.debug false
param **.coreDebug false
param *.playgroundSizeX 6000m
param *.playgroundSizeY 6000m
param *.playgroundSizeZ 50m
param *.annotations.draw true
param *.obstacles.debug false
param *.obstacles.obstacles "xmldoc(\"config.xml\", \"//AnalogueModel[@type='SimpleObstacleShadowing']/obstacles\")"
param *.manager.updateInterval 0.1s
param *.manager.host "\"localhost\""
param *.manager.port 9999
param *.manager.autoShutdown true
param *.manager.launchConfig "xmldoc(\"simOppositeDirection.launchd.xml\")"
param *.connectionManager.sendDirect true
param *.connectionManager.maxInterfDist 2600m
param *.connectionManager.drawMaxIntfDist false
param *.**.nic.mac1609_4.useServiceChannel true
param *.**.nic.mac1609_4.txPower 5mW
param *.**.nic.mac1609_4.bitrate 6Mbps
param *.**.nic.phy80211p.minPowerLevel -89dBm
param *.**.nic.phy80211p.useNoiseFloor false
param *.**.nic.phy80211p.noiseFloor -86dBm
param *.**.nic.phy80211p.decider "xmldoc(\"simCrossing.config.xml\")"
param *.**.nic.phy80211p.analogueModels "xmldoc(\"simCrossing.config.xml\")"
param *.**.nic.phy80211p.usePropagationDelay true
param *.node[*].nic.phy80211p.antennaOffsetY "0 m"
param *.node[*].nic.phy80211p.antennaOffsetZ "1.895 m"
param *.**.nic.phy80211p.antenna "xml(\"<root><Antenna type=\\\"IsotropicAntenna\\\" id=\\\"default_isotropic\\\"></Antenna></root>\")"
param *.node[*].applType "\"TraCIDemo11p\""
param *.node[*].appl.headerLength "80 bit"
param *.node[*].appl.sendBeacons false
param *.node[*].appl.dataOnSch false
param *.node[*].appl.beaconInterval 1s
param *.node[*].veinsmobilityType.debug true
param *.node[*].veinsmobility.x 0
param *.node[*].veinsmobility.y 0
param *.node[*].veinsmobility.z 1.895
param *.node[*0].veinsmobility.accidentCount 1
param *.node[*0].veinsmobility.accidentStart 75s
param *.node[*0].veinsmobility.accidentDuration 50s

vector 0 IcarScenario.node[0].veinsmobility posx ETV
vector 1 IcarScenario.node[0].veinsmobility posy ETV
vector 2 IcarScenario.node[0].veinsmobility speed ETV
vector 3 IcarScenario.node[0].veinsmobility acceleration ETV
vector 4 IcarScenario.node[0].veinsmobility co2emission ETV
vector 5 IcarScenario.node[1].veinsmobility posx ETV
vector 6 IcarScenario.node[1].veinsmobility posy ETV
vector 7 IcarScenario.node[1].veinsmobility speed ETV
vector 8 IcarScenario.node[1].veinsmobility acceleration ETV
vector 9 IcarScenario.node[1].veinsmobility co2emission ETV
vector 10 IcarScenario.node[2].veinsmobility posx ETV
vector 11 IcarScenario.node[2].veinsmobility posy ETV
vector 12 IcarScenario.node[2].veinsmobility speed ETV
vector 13 IcarScenario.node[2].veinsmobility acceleration ETV
vector 14 IcarScenario.node[2].veinsmobility co2emission ETV
9	1571	76.3	0.973
9	1576	76.4	0.973
9	1581	76.5	0.973
9	1587	76.6	0.973
9	1592	76.7	0.973
9	1597	76.8	0.973
9	1602	76.9	0.973
9	1607	77	0.973
9	1612	77.1	14.079460654527
9	1617	77.2	1.2225592564004
9	1622	77.3	1.2225592564004
9	1627	77.4	1.2225592564004
9	1632	77.5	1.2225592564004
9	1637	77.6	1.2225592564004
9	1642	77.7	1.2225592564004
9	1647	77.8	1.2225592564004
9	1652	77.9	1.2225592564004
9	1657	78	1.2225592564004
9	1662	78.1	24.848053168067
9	1667	78.2	1.3346942167053
9	1672	78.3	1.3346942167053
9	1677	78.4	1.3346942167053
9	1682	78.5	1.3346942167053
9	1687	78.6	1.3346942167053
9	1692	78.7	1.3346942167053
9	1697	78.8	1.3346942167053
9	1702	78.9	1.3346942167053
9	1707	79	1.3346942167053
9	1712	79.1	31.078527237536
9	1717	79.2	1.4432479625927
9	1722	79.3	1.4432479625927
9	1727	79.4	1.4432479625927
9	1732	79.5	1.4432479625927
9	1737	79.6	1.4432479625927
9	1742	79.7	1.4432479625927
9	1747	79.8	1.4432479625927
9	1752	79.9	1.4432479625927
9	1757	80	1.4432479625927
9	1762	80.1	56.019745274255
9	1767	80.2	1.6067485291171
9	1772	80.3	1.6067485291171
9	1777	80.4	1.6067485291171
9	1782	80.5	1.6067485291171
9	1787	80.6	1.6067485291171
9	1792	80.7	1.6067485291171
9	1797	80.8	1.6067485291171
9	1802	80.9	1.6067485291171
9	1807	81	1.6067485291171
9	1812	81.1	9.4970407220164
9	1817	81.2	1.6317892605207
9	1822	81.3	1.6317892605207
9	1827	81.4	1.6317892605207
9	1832	81.5	1.6317892605207
9	1837	81.6	1.6317892605207
9	1842	81.7	1.6317892605207
9	1847	81.8	1.6317892605207
9	1852	81.9	1.6317892605207
9	1857	82	1.6317892605207
9	1862	82.1	8.9349668868563
9	1867	82.2	1.654746253106
9	1872	82.3	1.654746253106
9	1877	82.4	1.654746253106
9	1882	82.5	1.654746253106
9	1887	82.6	1.654746253106
9	1892	82.7	1.654746253106
9	1897	82.8	1.654746253106
9	1902	82.9	1.654746253106
9	1907	83	1.654746253106
9	1912	83.1	4.9725358426838
9	1917	83.2	1.6651942845689
9	1922	83.3	1.6651942845689
9	1927	83.4	1.6651942845689
9	1932	83.5	1.6651942845689
9	1937	83.6	1.6651942845689
9	1942	83.7	1.6651942845689
9	1947	83.8	1.6651942845689
9	1952	83.9	1.6651942845689
9	1957	84	1.6651942845689
9	1962	84.1	0.973
9	1967	84.2	1.6494804194447
9	1972	84.3	1.6494804194447
9	1977	84.4	1.6494804194447
9	1982	84.5	1.6494804194447
9	1987	84.6	1.6494804194447
9	1992	84.7	1.6494804194447
9	1997	84.8	1.6494804194447
9	2002	84.9	1.6494804194447
9	2007	85	1.6494804194447
9	2012	85.1	0.973
9	2017	85.2	1.5906508450568
9	2022	85.3	1.5906508450568
9	2027	85.4	1.5906508450568
9	2032	85.5	1.5906508450568
9	2037	85.6	1.5906508450568
9	2042	85.7	1.5906508450568
9	2047	85.8	1.5906508450568
9	2052	85.9	1.5906508450568
9	2057	86	1.5906508450568
9	2062	86.1	6.5055515014402
9	2067	86.2	1.6065359397279
9	2072	86.3	1.6065359397279
9	2077	86.4	1.6065359397279
9	2082	86.5	1.6065359397279
9	2087	86.6	1.6065359397279
9	2092	86.7	1.6065359397279
9	2097	86.8	1.6065359397279
9	2102	86.9	1.6065359397279
9	2107	87	1.6065359397279
9	2112	87.1	15.083035232471
9	2117	87.2	1.6486103495518
9	2122	87.3	1.6486103495518
9	2127	87.4	1.6486103495518
9	2132	87.5	1.6486103495518
9	2137	87.6	1.6486103495518
9	2142	87.7	1.6486103495518
9	2147	87.8	1.6486103495518
9	2152	87.9	1.6486103495518
9	2157	88	1.6486103495518
9	2162	88.1	5.0996694740042
9	2167	88.2	1.6595010596398
9	2172	88.3	1.6595010596398
9	2177	88.4	1.6595010596398
9	2182	88.5	1.6595010596398
9	2187	88.6	1.6595010596398
9	2192	88.7	1.6595010596398
9	2197	88.8	1.6595010596398
9	2202	88.9	1.6595010596398
9	2207	89	1.6595010596398
9	2212	89.1	0.973
9	2218	89.2	1.6123058893387
9	2225	89.3	1.6123058893387
9	2232	89.4	1.6123058893387
9	2239	89.5	1.6123058893387
9	2247	89.6	1.6123058893387
9	2254	89.7	1.6123058893387
9	2261	89.8	1.6123058893387
9	2268	89.9	1.6123058893387
9	2275	90	1.6123058893387
9	2282	90.1	22.525079134644
9	2289	90.2	1.6761845431497
9	2296	90.3	1.6761845431497
9	2303	90.4	1.6761845431497
9	2310	90.5	1.6761845431497
9	2317	90.6	1.6761845431497
9	2324	90.7	1.6761845431497
9	2331	90.8	1.6761845431497
9	2338	90.9	1.6761845431497
9	2345	91	1.6761845431497
9	2352	91.1	0.973
9	2359	91.2	1.5938546586991
9	2366	91.3	1.5938546586991
9	2373	91.4	1.5938546586991
9	2380	91.5	1.5938546586991
9	2387	91.6	1.5938546586991
9	2394	91.7	1.5938546586991
9	2401	91.8	1.5938546586991
9	2408	91.9	1.5938546586991
9	2415	92	1.5938546586991
9	2422	92.1	22.48644141173
9	2429	92.2	1.658103312081
9	2436	92.3	1.658103312081
9	2443	92.4	1.658103312081
9	2450	92.5	1.658103312081
9	2457	92.6	1.658103312081
9	2464	92.7	1.658103312081
9	2471	92.8	1.658103312081
9	2478	92.9	1.658103312081
9	2485	93	1.658103312081
9	2492	93.1	3.0504296783563
9	2499	93.2	1.6625056027297
9	2506	93.3	1.6625056027297
9	2513	93.4	1.6625056027297
9	2520	93.5	1.6625056027297
9	2527	93.6	1.6625056027297
9	2534	93.7	1.6625056027297
9	2541	93.8	1.6625056027297
9	2548	93.9	1.6625056027297
9	2555	94	1.6625056027297
9	2562	94.1	0.973
9	2569	94.2	1.6386617686429
9	2576	94.3	1.6386617686429
9	2583	94.4	1.6386617686429
9	2590	94.5	1.6386617686429
9	2597	94.6	1.6386617686429
9	2604	94.7	1.6386617686429
9	2611	94.8	1.6386617686429
9	2618	94.9	1.6386617686429
9	2625	95	1.6386617686429
9	2632	95.1	5.5844421856958
9	2639	95.2	1.651148584556
9	2646	95.3	1.651148584556
9	2653	95.4	1.651148584556
9	2660	95.5	1.651148584556
9	2667	95.6	1.651148584556
9	2674	95.7	1.651148584556
9	2681	95.8	1.651148584556
9	2688	95.9	1.651148584556
9	2695	96	1.651148584556
9	2702	96.1	0.973
9	2709	96.2	1.6488441216762
9	2716	96.3	1.6488441216762
9	2723	96.4	1.6488441216762
9	2730	96.5	1.6488441216762
9	2737	96.6	1.6488441216762
9	2744	96.7	1.6488441216762
9	2751	96.8	1.6488441216762
9	2758	96.9	1.6488441216762
9	2765	97	1.6488441216762
9	2772	97.1	0.973
9	2779	97.2	1.6152712136449
9	2786	97.3	1.6152712136449
9	2793	97.4	1.6152712136449
9	2800	97.5	1.6152712136449
9	2807	97.6	1.6152712136449
9	2814	97.7	1.6152712136449
9	2821	97.8	1.6152712136449
9	2828	97.9	1.6152712136449
9	2835	98	1.6152712136449
9	2842	98.1	12.947843889028
9	2849	98.2	1.6507357670958
9	2856	98.3	1.6507357670958
9	2863	98.4	1.6507357670958
9	2870	98.5	1.6507357670958
9	2877	98.6	1.6507357670958
9	2884	98.7	1.6507357670958
9	2891	98.8	1.6507357670958
9	2898	98.9	1.6507357670958
9	2905	99	1.6507357670958
9	2912	99.1	0.973
9	2919	99.2	1.6278068000983
9	2926	99.3	1.6278068000983
9	2933	99.4	1.6278068000983
9	2940	99.5	1.6278068000983
9	2947	99.6	1.6278068000983
9	2954	99.7	1.6278068000983
9	2961	99.8	1.6278068000983
9	2968	99.9	1.6278068000983
9	2975	100	1.6278068000983
9	2982	100.1	0.973
9	2989	100.2	1.6067502980716
9	2996	100.3	1.6067502980716
9	3003	100.4	1.6067502980716
9	3010	100.5	1.6067502980716
9	3017	100.6	1.6067502980716
9	3024	100.7	1.6067502980716
9	3031	100.8	1.6067502980716
9	3038	100.9	1.6067502980716
9	3045	101	1.6067502980716
9	3052	101.1	0.973
9	3059	101.2	1.6034508227235
9	3066	101.3	1.6034508227235
9	3073	101.4	1.6034508227235
9	3080	101.5	1.6034508227235
9	3087	101.6	1.6034508227235
9	3094	101.7	1.6034508227235
9	3101	101.8	1.6034508227235
9	3108	101.9	1.6034508227235
9	3115	102	1.6034508227235
9	3122	102.1	9.3947205809985
9	3129	102.2	1.6282249385256
9	3136	102.3	1.6282249385256
9	3143	102.4	1.6282249385256
9	3150	102.5	1.6282249385256
9	3157	102.6	1.6282249385256
9	3164	102.7	1.6282249385256
9	3171	102.8	1.6282249385256
9	3178	102.9	1.6282249385256
9	3185	103	1.6282249385256
9	3192	103.1	0.973
9	3199	103.2	1.6062394501917
9	3206	103.3	1.6062394501917
9	3213	103.4	1.6062394501917
9	3220	103.5	1.6062394501917
9	3227	103.6	1.6062394501917
9	3234	103.7	1.6062394501917
9	3241	103.8	1.6062394501917
9	3248	103.9	1.6062394501917
9	3255	104	1.6062394501917
9	3262	104.1	5.377518662901
9	3269	104.2	1.6183698034061
9	3276	104.3	1.6183698034061
9	3283	104.4	1.6183698034061
9	3290	104.5	1.6183698034061
9	3297	104.6	1.6183698034061
9	3304	104.7	1.6183698034061
9	3311	104.8	1.6183698034061
9	3318	104.9	1.6183698034061
9	3325	105	1.6183698034061
9	3332	105.1	12.716058903999
9	3339	105.2	1.6530771931626
9	3346	105.3	1.6530771931626
9	3353	105.4	1.6530771931626
9	3360	105.5	1.6530771931626
9	3367	105.6	1.6530771931626
9	3374	105.7	1.6530771931626
9	3381	105.8	1.6530771931626
9	3388	105.9	1.6530771931626
9	3395	106	1.6530771931626
9	3402	106.1	7.592848747026
9	3409	106.2	1.6716609232163
9	3416	106.3	1.6716609232163
9	3423	106.4	1.6716609232163
9	3430	106.5	1.6716609232163
9	3437	106.6	1.6716609232163
9	3444	106.7	1.6716609232163
9	3451	106.8	1.6716609232163
9	3458	106.9	1.6716609232163
9	3465	107	1.6716609232163
9	3472	107.1	0.973
9	3479	107.2	1.6046875831831
9	3486	107.3	1.6046875831831
9	3493	107.4	1.6046875831831
9	3500	107.5	1.6046875831831
9	3507	107.6	1.6046875831831
9	3514	107.7	1.6046875831831
9	3521	107.8	1.6046875831831
9	3528	107.9	1.6046875831831
9	3535	108	1.6046875831831
9	3542	108.1	6.762977249891
9	3549	108.2	1.621217473063
9	3556	108.3	1.621217473063
9	3563	108.4	1.621217473063
9	3570	108.5	1.621217473063
9	3577	108.6	1.621217473063
9	3584	108.7	1.621217473063
9	3591	108.8	1.621217473063
9	3598	108.9	1.621217473063
9	3605	109	1.621217473063
9	3612	109.1	0.973
9	3619	109.2	1.6148354404729
9	3626	109.3	1.6148354404729
9	3633	109.4	1.6148354404729
9	3640	109.5	1.6148354404729
9	3647	109.6	1.6148354404729
9	3654	109.7	1.6148354404729
9	3661	109.8	1.6148354404729
9	3668	109.9	1.6148354404729
9	3675	110	1.6148354404729
9	3682	110.1	5.7981439101954
9	3689	110.2	1.628213053324
9	3696	110.3	1.628213053324
9	3703	110.4	1.628213053324
9	3710	110.5	1.628213053324
9	3717	110.6	1.628213053324
9	3724	110.7	1.628213053324
9	3731	110.8	1.628213053324
9	3738	110.9	1.628213053324
9	3745	111	1.628213053324
9	3753	111.1	14.697349342677
9	3760	111.2	1.6687108337324
9	3767	111.3	1.6687108337324
9	3774	111.4	1.6687108337324
9	3781	111.5	1.6687108337324
9	3788	111.6	1.6687108337324
9	3795	111.7	1.6687108337324
9	3802	111.8	1.6687108337324
9	3809	111.9	1.6687108337324
9	3816	112	1.6687108337324
9	3823	112.1	0.973
9	3830	112.2	1.6381074158332
9	3837	112.3	1.6381074158332
9	3844	112.4	1.6381074158332
9	3851	112.5	1.6381074158332
9	3858	112.6	1.6381074158332
9	3865	112.7	1.6381074158332
9	3872	112.8	1.6381074158332
9	3879	112.9	1.6381074158332
9	3886	113	1.6381074158332
9	3893	113.1	0.973
9	3900	113.2	1.6151840405461
9	3907	113.3	1.6151840405461
9	3914	113.4	1.6151840405461
9	3921	113.5	1.6151840405461
9	3928	113.6	1.6151840405461
9	3935	113.7	1.6151840405461
9	3942	113.8	1.6151840405461
9	3949	113.9	1.6151840405461
9	3956	114	1.6151840405461
9	3963	114.1	0.973
9	3970	114.2	1.6102863400819
9	3977	114.3	1.6102863400819
9	3984	114.4	1.6102863400819
9	3991	114.5	1.6102863400819
9	3998	114.6	1.6102863400819
9	4005	114.7	1.6102863400819
9	4012	114.8	1.6102863400819
9	4019	114.9	1.6102863400819
9	4026	115	1.6102863400819
9	4033	115.1	25.200104349701
9	4040	115.2	1.6819201879433
9	4047	115.3	1.6819201879433
9	4054	115.4	1.6819201879433
9	4061	115.5	1.6819201879433
9	4068	115.6	1.6819201879433
9	4075	115.7	1.6819201879433
9	4082	115.8	1.6819201879433
9	4089	115.9	1.6819201879433
9	4096	116	1.6819201879433
9	4103	116.1	0.973
9	4110	116.2	1.601503795461
9	4117	116.3	1.601503795461
9	4124	116.4	1.601503795461
9	4131	116.5	1.601503795461
9	4138	116.6	1.601503795461
9	4145	116.7	1.601503795461
9	4152	116.8	1.601503795461
9	4159	116.9	1.601503795461
9	4166	117	1.601503795461
9	4173	117.1	20.894249421651
9	4180	117.2	1.6609093222673
9	4187	117.3	1.6609093222673
9	4194	117.4	1.6609093222673
9	4201	117.5	1.6609093222673
9	4208	117.6	1.6609093222673
9	4215	117.7	1.6609093222673
9	4222	117.8	1.6609093222673
9	4229	117.9	1.6609093222673
9	4236	118	1.6609093222673
9	4243	118.1	0.973
9	4250	118.2	1.4267806769276
9	4257	118.3	1.4267806769276
9	4264	118.4	1.4267806769276
9	4271	118.5	1.4267806769276
9	4278	118.6	1.4267806769276
9	4285	118.7	1.4267806769276
9	4292	118.8	1.4267806769276
9	4299	118.9	1.4267806769276
9	4306	119	1.4267806769276
9	4313	119.1	27.319873790098
9	4320	119.2	1.5136832434162
9	4327	119.3	1.5136832434162
9	4334	119.4	1.5136832434162
9	4341	119.5	1.5136832434162
9	4348	119.6	1.5136832434162
9	4355	119.7	1.5136832434162
9	4362	119.8	1.5136832434162
9	4369	119.9	1.5136832434162
9	4376	120	1.5136832434162
9	4383	120.1	28.913566831727
9	4390	120.2	1.5995024333575
9	4397	120.3	1.5995024333575
9	4404	120.4	1.5995024333575
9	4411	120.5	1.5995024333575
9	4418	120.6	1.5995024333575
9	4425	120.7	1.5995024333575
9	4432	120.8	1.5995024333575
9	4439	120.9	1.5995024333575
9	4446	121	1.5995024333575
9	4453	121.1	4.4541010578046
9	4460	121.2	1.6087473905476
9	4467	121.3	1.6087473905476
9	4474	121.4	1.6087473905476
9	4481	121.5	1.6087473905476
9	4488	121.6	1.6087473905476
9	4495	121.7	1.6087473905476
9	4502	121.8	1.6087473905476
9	4509	121.9	1.6087473905476
9	4516	122	1.6087473905476
9	4523	122.1	0.973
9	4530	122.2	1.6007025651857
9	4537	122.3	1.6007025651857
9	4544	122.4	1.6007025651857
9	4551	122.5	1.6007025651857
9	4558	122.6	1.6007025651857
9	4565	122.7	1.6007025651857
9	4572	122.8	1.6007025651857
9	4579	122.9	1.6007025651857
9	4586	123	1.6007025651857
9	4593	123.1	27.646590198403
9	4600	123.2	1.6795730817649
9	4607	123.3	1.6795730817649
9	4614	123.4	1.6795730817649
9	4621	123.5	1.6795730817649
9	4628	123.6	1.6795730817649
9	4635	123.7	1.6795730817649
9	4642	123.8	1.6795730817649
9	4649	123.9	1.6795730817649
9	4656	124	1.6795730817649
9	4663	124.1	0.973
9	4670	124.2	1.5905317107424
9	4677	124.3	1.5905317107424
9	4684	124.4	1.5905317107424
9	4691	124.5	1.5905317107424
9	4698	124.6	1.5905317107424
9	4705	124.7	1.5905317107424
9	4712	124.8	1.5905317107424
9	4719	124.9	1.5905317107424
9	4726	125	1.5905317107424
9	4733	125.1	22.150449071135
9	4740	125.2	1.6538957745926
9	4747	125.3	1.6538957745926
9	4754	125.4	1.6538957745926
9	4761	125.5	1.6538957745926
9	4768	125.6	1.6538957745926
9	4775	125.7	1.6538957745926
9	4782	125.8	1.6538957745926
9	4789	125.9	1.6538957745926
9	4796	126	1.6538957745926
9	4803	126.1	0.973
9	4810	126.2	1.6429296573955
9	4817	126.3	1.6429296573955
9	4824	126.4	1.6429296573955
9	4831	126.5	1.6429296573955
9	4838	126.6	1.6429296573955
9	4845	126.7	1.6429296573955
9	4852	126.8	1.6429296573955
9	4859	126.9	1.6429296573955
9	4866	127	1.6429296573955
9	4873	127.1	0.973
9	4880	127.2	1.6383648055298
9	4887	127.3	1.6383648055298
9	4894	127.4	1.6383648055298
9	4901	127.5	1.6383648055298
9	4908	127.6	1.6383648055298
9	4915	127.7	1.6383648055298
9	4922	127.8	1.6383648055298
9	4929	127.9	1.6383648055298
9	4936	128	1.6383648055298
9	4943	128.1	0.973
9	4950	128.2	1.6062041565286
9	4957	128.3	1.6062041565286
9	4964	128.4	1.6062041565286
9	4971	128.5	1.6062041565286
9	4978	128.6	1.6062041565286
9	4985	128.7	1.6062041565286
9	4992	128.8	1.6062041565286
9	4999	128.9	1.6062041565286
9	5006	129	1.6062041565286
9	5013	129.1	22.011145043457
9	5020	129.2	1.6687445908425
9	5027	129.3	1.6687445908425
9	5034	129.4	1.6687445908425
9	5041	129.5	1.6687445908425
9	5048	129.6	1.6687445908425
9	5055	129.7	1.6687445908425
9	5062	129.8	1.6687445908425
9	5069	129.9	1.6687445908425
9	5076	130	1.6687445908425
9	5083	130.1	0.973
9	5090	130.2	1.6231659405206
9	5097	130.3	1.6231659405206
9	5104	130.4	1.6231659405206
9	5111	130.5	1.6231659405206
9	5118	130.6	1.6231659405206
9	5125	130.7	1.6231659405206
9	5132	130.8	1.6231659405206
9	5139	130.9	1.6231659405206
9	5146	131	1.6231659405206
9	5153	131.1	0.973
9	5160	131.2	1.59389007926
9	5167	131.3	1.59389007926
9	5174	131.4	1.59389007926
9	5181	131.5	1.59389007926
9	5188	131.6	1.59389007926
9	5195	131.7	1.59389007926
9	5202	131.8	1.59389007926
9	5209	131.9	1.59389007926
9	5216	132	1.59389007926
9	5223	132.1	8.9067247789209
9	5230	132.2	1.6172933648252
9	5237	132.3	1.6172933648252
9	5244	132.4	1.6172933648252
9	5251	132.5	1.6172933648252
9	5258	132.6	1.6172933648252
9	5265	132.7	1.6172933648252
9	5272	132.8	1.6172933648252
9	5279	132.9	1.6172933648252
9	5286	133	1.6172933648252
9	5293	133.1	12.414210209219
9	5300	133.2	1.6511039669535
9	5307	133.3	1.6511039669535
9	5314	133.4	1.6511039669535
9	5321	133.5	1.6511039669535
9	5328	133.6	1.6511039669535
9	5335	133.7	1.6511039669535
9	5342	133.8	1.6511039669535
9	5349	133.9	1.6511039669535
9	5356	134	1.6511039669535
9	5363	134.1	0.973
9	5370	134.2	1.6271706730561
9	5377	134.3	1.6271706730561
9	5384	134.4	1.6271706730561
9	5391	134.5	1.6271706730561
9	5398	134.6	1.6271706730561
9	5405	134.7	1.6271706730561
9	5412	134.8	1.6271706730561
9	5419	134.9	1.6271706730561
9	5426	135	1.6271706730561
9	5433	135.1	0.973
9	5440	135.2	1.60887320913
9	5447	135.3	1.60887320913
9	5454	135.4	1.60887320913
9	5461	135.5	1.60887320913
9	5468	135.6	1.60887320913
9	5475	135.7	1.60887320913
9	5482	135.8	1.60887320913
9	5489	135.9	1.60887320913
9	5496	136	1.60887320913
9	5503	136.1	0.973
9	5510	136.2	1.5976818095412
9	5517	136.3	1.5976818095412
9	5524	136.4	1.5976818095412
9	5531	136.5	1.5976818095412
9	5538	136.6	1.5976818095412
9	5545	136.7	1.5976818095412
9	5552	136.8	1.5976818095412
9	5559	136.9	1.5976818095412
9	5566	137	1.5976818095412
9	5573	137.1	21.649329200037
9	5580	137.2	1.6593907124617
9	5587	137.3	1.6593907124617
9	5594	137.4	1.6593907124617
9	5601	137.5	1.6593907124617
9	5608	137.6	1.6593907124617
9	5615	137.7	1.6593907124617
9	5622	137.8	1.6593907124617
9	5629	137.9	1.6593907124617
9	5636	138	1.6593907124617
9	5643	138.1	6.3173584504236
9	5650	138.2	1.6739795747034
9	5657	138.3	1.6739795747034
9	5664	138.4	1.6739795747034
9	5671	138.5	1.6739795747034
9	5678	138.6	1.6739795747034
9	5685	138.7	1.6739795747034
9	5692	138.8	1.6739795747034
9	5699	138.9	1.6739795747034
9	5706	139	1.6739795747034
9	5713	139.1	0.973
9	5720	139.2	1.6022506355927
9	5727	139.3	1.6022506355927
9	5734	139.4	1.6022506355927
9	5741	139.5	1.6022506355927
9	5748	139.6	1.6022506355927
9	5755	139.7	1.6022506355927
9	5762	139.8	1.6022506355927
9	5769	139.9	1.6022506355927
9	5776	140	1.6022506355927
9	5783	140.1	4.9908491530222
9	5790	140.2	1.6131879410648
9	5797	140.3	1.6131879410648
9	5804	140.4	1.6131879410648
9	5811	140.5	1.6131879410648
9	5818	140.6	1.6131879410648
9	5825	140.7	1.6131879410648
9	5832	140.8	1.6131879410648
9	5839	140.9	1.6131879410648
9	5846	141	1.6131879410648
9	5853	141.1	18.969326365192
9	5860	141.2	1.6666671612714
9	5867	141.3	1.6666671612714
9	5874	141.4	1.6666671612714
9	5881	141.5	1.6666671612714
9	5888	141.6	1.6666671612714
9	5895	141.7	1.6666671612714
9	5902	141.8	1.6666671612714
9	5909	141.9	1.6666671612714
9	5916	142	1.6666671612714
9	5923	142.1	0.973
9	5930	142.2	1.6318977283253
9	5937	142.3	1.6318977283253
9	5944	142.4	1.6318977283253
9	5951	142.5	1.6318977283253
9	5958	142.6	1.6318977283253
9	5965	142.7	1.6318977283253
9	5972	142.8	1.6318977283253
9	5979	142.9	1.6318977283253
9	5986	143	1.6318977283253
9	5993	143.1	0.973
9	6000	143.2	1.606414443537
9	6007	143.3	1.606414443537
9	6014	143.4	1.606414443537
9	6021	143.5	1.606414443537
9	6028	143.6	1.606414443537
9	6035	143.7	1.606414443537
9	6042	143.8	1.606414443537
9	6049	143.9	1.606414443537
9	6056	144	1.606414443537
9	6063	144.1	22.627353647277
9	6070	144.2	1.6707373796646
9	6077	144.3	1.6707373796646
9	6084	144.4	1.6707373796646
9	6091	144.5	1.6707373796646
9	6098	144.6	1.6707373796646
9	6105	144.7	1.6707373796646
9	6112	144.8	1.6707373796646
9	6119	144.9	1.6707373796646
9	6126	145	1.6707373796646
9	6133	145.1	0.973
9	6140	145.2	1.6029202609948
9	6147	145.3	1.6029202609948
9	6154	145.4	1.6029202609948
9	6161	145.5	1.6029202609948
9	6168	145.6	1.6029202609948
9	6175	145.7	1.6029202609948
9	6182	145.8	1.6029202609948
9	6189	145.9	1.6029202609948
9	6196	146	1.6029202609948
9	6203	146.1	3.169491210351
9	6210	146.2	1.6080065339634
9	6217	146.3	1.6080065339634
9	6224	146.4	1.6080065339634
9	6231	146.5	1.6080065339634
9	6238	146.6	1.6080065339634
9	6245	146.7	1.6080065339634
9	6252	146.8	1.6080065339634
9	6259	146.9	1.6080065339634
9	6266	147	1.6080065339634
9	6273	147.1	23.846027132243
9	6280	147.2	1.6758096334745
9	6287	147.3	1.6758096334745
9	6294	147.4	1.6758096334745
9	6301	147.5	1.6758096334745
9	6308	147.6	1.6758096334745
9	6315	147.7	1.6758096334745
9	6322	147.8	1.6758096334745
9	6329	147.9	1.6758096334745
9	6336	148	1.6758096334745
9	6343	148.1	0.973
9	6350	148.2	1.606812870679
9	6357	148.3	1.606812870679
9	6364	148.4	1.606812870679
9	6371	148.5	1.606812870679
9	6378	148.6	1.606812870679
9	6385	148.7	1.606812870679
9	6392	148.8	1.606812870679
9	6399	148.9	1.606812870679
9	6406	149	1.606812870679
9	6413	149.1	0.973
9	6420	149.2	1.5975728636864
9	6427	149.3	1.5975728636864
9	6434	149.4	1.5975728636864
9	6441	149.5	1.5975728636864
9	6448	149.6	1.5975728636864
9	6455	149.7	1.5975728636864
9	6462	149.8	1.5975728636864
9	6469	149.9	1.5975728636864
9	6476	150	1.5975728636864
9	6483	150.1	29.877518427017
9	6490	150.2	1.6828393244988
9	6497	150.3	1.6828393244988
9	6504	150.4	1.6828393244988
9	6511	150.5	1.6828393244988
9	6518	150.6	1.6828393244988
9	6525	150.7	1.6828393244988
9	6532	150.8	1.6828393244988
9	6539	150.9	1.6828393244988
9	6546	151	1.6828393244988
9	6553	151.1	0.973
9	6560	151.2	1.5947351438002
9	6567	151.3	1.5947351438002
9	6574	151.4	1.5947351438002
9	6581	151.5	1.5947351438002
9	6588	151.6	1.5947351438002
9	6595	151.7	1.5947351438002
9	6602	151.8	1.5947351438002
9	6609	151.9	1.5947351438002
9	6616	152	1.5947351438002
9	6623	152.1	9.4105147672419
9	6630	152.2	1.6196959590258
9	6637	152.3	1.6196959590258
9	6644	152.4	1.6196959590258
9	6651	152.5	1.6196959590258
9	6658	152.6	1.6196959590258
9	6665	152.7	1.6196959590258
9	6672	152.8	1.6196959590258
9	6679	152.9	1.6196959590258
9	6686	153	1.6196959590258
9	6693	153.1	7.3273346447399
9	6700	153.2	1.6378188300096
9	6707	153.3	1.6378188300096
9	6714	153.4	1.6378188300096
9	6721	153.5	1.6378188300096
9	6728	153.6	1.6378188300096
9	6735	153.7	1.6378188300096
9	6742	153.8	1.6378188300096
9	6749	153.9	1.6378188300096
9	6756	154	1.6378188300096
9	6763	154.1	0.973
9	6770	154.2	1.5936716980098
9	6777	154.3	1.5936716980098
9	6784	154.4	1.5936716980098
9	6791	154.5	1.5936716980098
9	6798	154.6	1.5936716980098
9	6805	154.7	1.5936716980098
9	6812	154.8	1.5936716980098
9	6819	154.9	1.5936716980098
9	6826	155	1.5936716980098
9	6833	155.1	27.664224134112
9	6840	155.2	1.672797104434
9	6847	155.3	1.672797104434
9	6854	155.4	1.672797104434
9	6861	155.5	1.672797104434
9	6868	155.6	1.672797104434
9	6875	155.7	1.672797104434
9	6882	155.8	1.672797104434
9	6889	155.9	1.672797104434
9	6896	156	1.672797104434
9	6903	156.1	0.973
9	6910	156.2	1.606058545165
9	6917	156.3	1.606058545165
9	6924	156.4	1.606058545165
9	6931	156.5	1.606058545165
9	6938	156.6	1.606058545165
9	6945	156.7	1.606058545165
9	6952	156.8	1.606058545165
9	6959	156.9	1.606058545165
9	6966	157	1.606058545165
9	6973	157.1	14.85857754305
9	6980	157.2	1.6474683223346
9	6987	157.3	1.6474683223346
9	6994	157.4	1.6474683223346
9	7001	157.5	1.6474683223346
9	7008	157.6	1.6474683223346
9	7015	157.7	1.6474683223346
9	7022	157.8	1.6474683223346
9	7029	157.9	1.6474683223346
9	7036	158	1.6474683223346
9	7043	158.1	0.973
9	7050	158.2	1.5998304151684
9	7057	158.3	1.5998304151684
9	7064	158.4	1.5998304151684
9	7071	158.5	1.5998304151684
9	7078	158.6	1.5998304151684
9	7085	158.7	1.5998304151684
9	7092	158.8	1.5998304151684
9	7099	158.9	1.5998304151684
9	7106	159	1.5998304151684
9	7113	159.1	19.804649112493
9	7120	159.2	1.6560852004732
9	7127	159.3	1.6560852004732
9	7134	159.4	1.6560852004732
9	7141	159.5	1.6560852004732
9	7148	159.6	1.6560852004732
9	7155	159.7	1.6560852004732
9	7162	159.8	1.6560852004732
9	7169	159.9	1.6560852004732
9	7176	160	1.6560852004732
9	7183	160.1	9.8839742079278
9	7190	160.2	1.6816461660528
9	7197	160.3	1.6816461660528
9	7204	160.4	1.6816461660528
9	7211	160.5	1.6816461660528
9	7218	160.6	1.6816461660528
9	7225	160.7	1.6816461660528
9	7232	160.8	1.6816461660528
9	7239	160.9	1.6816461660528
9	7246	161	1.6816461660528
9	7254	161.1	0.973
9	7261	161.2	1.6137664671645
9	7268	161.3	1.6137664671645
9	7275	161.4	1.6137664671645
9	7282	161.5	1.6137664671645
9	7289	161.6	1.6137664671645
9	7296	161.7	1.6137664671645
9	7303	161.8	1.6137664671645
9	7310	161.9	1.6137664671645
9	7317	162	1.6137664671645
9	7324	162.1	4.9849590660201
9	7331	162.2	1.6245811002164
9	7338	162.3	1.6245811002164
9	7345	162.4	1.6245811002164
9	7352	162.5	1.6245811002164
9	7359	162.6	1.6245811002164
9	7366	162.7	1.6245811002164
9	7373	162.8	1.6245811002164
9	7380	162.9	1.6245811002164
9	7387	163	1.6245811002164
9	7394	163.1	9.6333022048668
9	7401	163.2	1.6497822900649
9	7408	163.3	1.6497822900649
9	7415	163.4	1.6497822900649
9	7422	163.5	1.6497822900649
9	7429	163.6	1.6497822900649
9	7436	163.7	1.6497822900649
9	7443	163.8	1.6497822900649
9	7450	163.9	1.6497822900649
9	7457	164	1.6497822900649
9	7464	164.1	4.0434830027678
9	7471	164.2	1.657355316396
9	7478	164.3	1.657355316396
9	7485	164.4	1.657355316396
9	7492	164.5	1.657355316396
9	7499	164.6	1.657355316396
9	7506	164.7	1.657355316396
9	7513	164.8	1.657355316396
9	7520	164.9	1.657355316396
9	7527	165	1.657355316396
9	7534	165.1	0.973
9	7541	165.2	1.6441061860935
9	7548	165.3	1.6441061860935
9	7555	165.4	1.6441061860935
9	7562	165.5	1.6441061860935
9	7569	165.6	1.6441061860935
9	7576	165.7	1.6441061860935
9	7583	165.8	1.6441061860935
9	7590	165.9	1.6441061860935
9	7597	166	1.6441061860935
9	7604	166.1	12.31070600307
9	7611	166.2	1.677175211248
9	7618	166.3	1.677175211248
9	7625	166.4	1.677175211248
9	7632	166.5	1.677175211248
9	7639	166.6	1.677175211248
9	7646	166.7	1.677175211248
9	7653	166.8	1.677175211248
9	7660	166.9	1.677175211248
9	7667	167	1.677175211248
9	7674	167.1	0.973
9	7681	167.2	1.6113121740356
9	7688	167.3	1.6113121740356
9	7695	167.4	1.6113121740356
9	7702	167.5	1.6113121740356
9	7709	167.6	1.6113121740356
9	7716	167.7	1.6113121740356
9	7723	167.8	1.6113121740356
9	7730	167.9	1.6113121740356
9	7737	168	1.6113121740356
9	7744	168.1	15.885958691893
9	7751	168.2	1.6556919124094
9	7758	168.3	1.6556919124094
9	7765	168.4	1.6556919124094
9	7772	168.5	1.6556919124094
9	7779	168.6	1.6556919124094
9	7786	168.7	1.6556919124094
9	7793	168.8	1.6556919124094
9	7800	168.9	1.6556919124094
9	7807	169	1.6556919124094
9	7814	169.1	0.973
9	7821	169.2	1.6201332944937
9	7828	169.3	1.6201332944937
9	7835	169.4	1.6201332944937
9	7842	169.5	1.6201332944937
9	7849	169.6	1.6201332944937
9	7856	169.7	1.6201332944937
9	7863	169.8	1.6201332944937
9	7870	169.9	1.6201332944937
9	7877	170	1.6201332944937
9	7884	170.1	6.9469797446111
9	7891	170.2	1.637063228726
9	7898	170.3	1.637063228726
9	7905	170.4	1.637063228726
9	7912	170.5	1.637063228726
9	7919	170.6	1.637063228726
9	7926	170.7	1.637063228726
9	7933	170.8	1.637063228726
9	7940	170.9	1.637063228726
9	7947	171	1.637063228726
9	7954	171.1	6.6773166481418
9	7961	171.2	1.6529740882729
9	7968	171.3	1.6529740882729
9	7975	171.4	1.6529740882729
9	7982	171.5	1.6529740882729
9	7989	171.6	1.6529740882729
9	7996	171.7	1.6529740882729
9	8003	171.8	1.6529740882729
9	8010	171.9	1.6529740882729
9	8017	172	1.6529740882729
9	8024	172.1	10.476494415359
9	8031	172.2	1.6803733552082
9	8038	172.3	1.6803733552082
9	8045	172.4	1.6803733552082
9	8052	172.5	1.6803733552082
9	8059	172.6	1.6803733552082
9	8066	172.7	1.6803733552082
9	8073	172.8	1.6803733552082
9	8080	172.9	1.6803733552082
9	8087	173	1.6803733552082
9	8094	173.1	0.973
9	8101	173.2	1.6356880472458
9	8108	173.3	1.6356880472458
9	8115	173.4	1.6356880472458
9	8122	173.5	1.6356880472458
9	8129	173.6	1.6356880472458
9	8136	173.7	1.6356880472458
9	8143	173.8	1.6356880472458
9	8150	173.9	1.6356880472458
9	8157	174	1.6356880472458
9	8164	174.1	6.617037587105
9	8171	174.2	1.6514249434027
9	8178	174.3	1.6514249434027
9	8185	174.4	1.6514249434027
9	8192	174.5	1.6514249434027
9	8199	174.6	1.6514249434027
9	8206	174.7	1.6514249434027
9	8213	174.8	1.6514249434027
9	8220	174.9	1.6514249434027
9	8227	175	1.6514249434027
9	8234	175.1	0.973
9	8241	175.2	1.5956870659758
9	8248	175.3	1.5956870659758
9	8255	175.4	1.5956870659758
9	8262	175.5	1.5956870659758
9	8269	175.6	1.5956870659758
9	8276	175.7	1.5956870659758
9	8283	175.8	1.5956870659758
9	8290	175.9	1.5956870659758
9	8297	176	1.5956870659758
9	8304	176.1	10.197935491297
9	8311	176.2	1.6230768924446
9	8318	176.3	1.6230768924446
9	8325	176.4	1.6230768924446
9	8332	176.5	1.6230768924446
9	8339	176.6	1.6230768924446
9	8346	176.7	1.6230768924446
9	8353	176.8	1.6230768924446
9	8360	176.9	1.6230768924446
9	8367	177	1.6230768924446
9	8374	177.1	4.4324811365131
9	8381	177.2	1.6320630503587
9	8388	177.3	1.6320630503587
9	8395	177.4	1.6320630503587
9	8402	177.5	1.6320630503587
9	8409	177.6	1.6320630503587
9	8416	177.7	1.6320630503587
9	8423	177.8	1.6320630503587
9	8430	177.9	1.6320630503587
9	8437	178	1.6320630503587
9	8444	178.1	9.6096039411712
9	8451	178.2	1.6570894244083
9	8458	178.3	1.6570894244083
9	8465	178.4	1.6570894244083
9	8472	178.5	1.6570894244083
9	8479	178.6	1.6570894244083
9	8486	178.7	1.6570894244083
9	8493	178.8	1.6570894244083
9	8500	178.9	1.6570894244083
9	8507	179	1.6570894244083
9	8514	179.1	0.973
9	8521	179.2	1.5942169071801
9	8528	179.3	1.5942169071801
9	8535	179.4	1.5942169071801
9	8542	179.5	1.5942169071801
9	8549	179.6	1.5942169071801
9	8556	179.7	1.5942169071801
9	8563	179.8	1.5942169071801
9	8570	179.9	1.5942169071801
9	8577	180	1.5942169071801
9	8584	180.1	1.860131029197
9	8591	180.2	1.5950889104193
9	8598	180.3	1.5950889104193
9	8605	180.4	1.5950889104193
9	8612	180.5	1.5950889104193
9	8619	180.6	1.5950889104193
9	8626	180.7	1.5950889104193
9	8633	180.8	1.5950889104193
9	8640	180.9	1.5950889104193
9	8647	181	1.5950889104193
9	8654	181.1	24.247048394509
9	8661	181.2	1.6643972273574
9	8668	181.3	1.6643972273574
9	8675	181.4	1.6643972273574
9	8682	181.5	1.6643972273574
9	8689	181.6	1.6643972273574
9	8696	181.7	1.6643972273574
9	8703	181.8	1.6643972273574
9	8710	181.9	1.6643972273574
9	8717	182	1.6643972273574
9	8724	182.1	0.973
9	8731	182.2	1.617704878302
9	8738	182.3	1.617704878302
9	8745	182.4	1.617704878302
9	8752	182.5	1.617704878302
9	8759	182.6	1.617704878302
9	8766	182.7	1.617704878302
9	8773	182.8	1.617704878302
9	8780	182.9	1.617704878302
9	8787	183	1.617704878302
9	8794	183.1	20.713366690414
9	8801	183.2	1.676189597535
9	8808	183.3	1.676189597535
9	8815	183.4	1.676189597535
9	8822	183.5	1.676189597535
9	8829	183.6	1.676189597535
9	8836	183.7	1.676189597535
9	8843	183.8	1.676189597535
9	8850	183.9	1.676189597535
9	8857	184	1.676189597535
9	8864	184.1	0.973
9	8871	184.2	1.626063316676
9	8878	184.3	1.626063316676
9	8885	184.4	1.626063316676
9	8892	184.5	1.626063316676
9	8899	184.6	1.626063316676
9	8906	184.7	1.626063316676
9	8913	184.8	1.626063316676
9	8920	184.9	1.626063316676
9	8927	185	1.626063316676
9	8934	185.1	13.255456158497
9	8941	185.2	1.6622679332446
9	8948	185.3	1.6622679332446
9	8955	185.4	1.6622679332446
9	8962	185.5	1.6622679332446
9	8969	185.6	1.6622679332446
9	8976	185.7	1.6622679332446
9	8983	185.8	1.6622679332446
9	8990	185.9	1.6622679332446
9	8997	186	1.6622679332446
9	9004	186.1	0.973
9	9011	186.2	1.6217908712957
9	9018	186.3	1.6217908712957
9	9025	186.4	1.6217908712957
9	9032	186.5	1.6217908712957
9	9039	186.6	1.6217908712957
9	9046	186.7	1.6217908712957
9	9053	186.8	1.6217908712957
9	9060	186.9	1.6217908712957
9	9067	187	1.6217908712957
9	9074	187.1	8.9640670698469
9	9081	187.2	1.6449681058259
9	9088	187.3	1.6449681058259
9	9095	187.4	1.6449681058259
9	9102	187.5	1.6449681058259
9	9109	187.6	1.6449681058259
9	9116	187.7	1.6449681058259
9	9123	187.8	1.6449681058259
9	9130	187.9	1.6449681058259
9	9137	188	1.6449681058259
9	9144	188.1	0.973
9	9151	188.2	1.5931865794137
9	9158	188.3	1.5931865794137
9	9165	188.4	1.5931865794137
9	9172	188.5	1.5931865794137
9	9179	188.6	1.5931865794137
9	9186	188.7	1.5931865794137
9	9193	188.8	1.5931865794137
9	9200	188.9	1.5931865794137
9	9207	189	1.5931865794137
9	9214	189.1	21.485485641266
9	9221	189.2	1.6545385487519
9	9228	189.3	1.6545385487519
9	9235	189.4	1.6545385487519
9	9242	189.5	1.6545385487519
9	9249	189.6	1.6545385487519
9	9256	189.7	1.6545385487519
9	9263	189.8	1.6545385487519
9	9270	189.9	1.6545385487519
9	9277	190	1.6545385487519
9	9284	190.1	0.973
9	9291	190.2	1.6176604239851
9	9298	190.3	1.6176604239851
9	9305	190.4	1.6176604239851
9	9312	190.5	1.6176604239851
9	9319	190.6	1.6176604239851
9	9326	190.7	1.6176604239851
9	9333	190.8	1.6176604239851
9	9340	190.9	1.6176604239851
9	9347	191	1.6176604239851
9	9354	191.1	11.716513341336
9	9361	191.2	1.6493428988439
9	9368	191.3	1.6493428988439
9	9375	191.4	1.6493428988439
9	9382	191.5	1.6493428988439
9	9389	191.6	1.6493428988439
9	9396	191.7	1.6493428988439
9	9403	191.8	1.6493428988439
9	9410	191.9	1.6493428988439
9	9417	192	1.6493428988439
9	9424	192.1	0.973
9	9431	192.2	1.605622757274
9	9438	192.3	1.605622757274
9	9445	192.4	1.605622757274
9	9452	192.5	1.605622757274
9	9459	192.6	1.605622757274
9	9466	192.7	1.605622757274
9	9473	192.8	1.605622757274
9	9480	192.9	1.605622757274
9	9487	193	1.605622757274
9	9494	193.1	12.913567950073
9	9501	193.2	1.6411617922589
9	9508	193.3	1.6411617922589
9	9515	193.4	1.6411617922589
9	9522	193.5	1.6411617922589
9	9529	193.6	1.6411617922589
9	9536	193.7	1.6411617922589
9	9543	193.8	1.6411617922589
9	9550	193.9	1.6411617922589
9	9557	194	1.6411617922589
9	9564	194.1	0.973
9	9571	194.2	1.6003434388339
9	9578	194.3	1.6003434388339
9	9585	194.4	1.6003434388339
9	9592	194.5	1.6003434388339
9	9599	194.6	1.6003434388339
9	9606	194.7	1.6003434388339
9	9613	194.8	1.6003434388339
9	9620	194.9	1.6003434388339
9	9627	195	1.6003434388339
9	9634	195.1	13.223084197949
9	9641	195.2	1.6369257476297
9	9648	195.3	1.6369257476297
9	9655	195.4	1.6369257476297
9	9662	195.5	1.6369257476297
9	9669	195.6	1.6369257476297
9	9676	195.7	1.6369257476297
9	9683	195.8	1.6369257476297
9	9690	195.9	1.6369257476297
9	9697	196	1.6369257476297
9	9704	196.1	0.973
9	9711	196.2	1.5938997855588
9	9718	196.3	1.5938997855588
9	9725	196.4	1.5938997855588
9	9732	196.5	1.5938997855588
9	9739	196.6	1.5938997855588
9	9746	196.7	1.5938997855588
9	9753	196.8	1.5938997855588
9	9760	196.9	1.5938997855588
9	9767	197	1.5938997855588
9	9774	197.1	29.190074739945
9	9781	197.2	1.6773386720594
9	9788	197.3	1.6773386720594
9	9795	197.4	1.6773386720594
9	9802	197.5	1.6773386720594
9	9809	197.6	1.6773386720594
9	9816	197.7	1.6773386720594
9	9823	197.8	1.6773386720594
9	9830	197.9	1.6773386720594
9	9837	198	1.6773386720594
9	9844	198.1	0.973
9	9851	198.2	1.5936683434979
9	9858	198.3	1.5936683434979
9	9865	198.4	1.5936683434979
9	9872	198.5	1.5936683434979
9	9879	198.6	1.5936683434979
9	9886	198.7	1.5936683434979
9	9893	198.8	1.5936683434979
9	9900	198.9	1.5936683434979
9	9907	199	1.5936683434979
9	9914	199.1	13.036086506895
9	9921	199.2	1.6298164657331
9	9928	199.3	1.6298164657331
9	9935	199.4	1.6298164657331
9	9942	199.5	1.6298164657331
9	9949	199.6	1.6298164657331
9	9956	199.7	1.6298164657331
9	9963	199.8	1.6298164657331
9	9970	199.9	1.6298164657331
9	9977	200	1.6298164657331
9	9984	200.1	10.162813447798
9	9991	200.2	1.6565684531768
9	9998	200.3	1.6565684531768
9	10005	200.4	1.6565684531768
9	10012	200.5	1.6565684531768
9	10019	200.6	1.6565684531768
9	10026	200.7	1.6565684531768
9	10033	200.8	1.6565684531768
9	10040	200.9	1.6565684531768
9	10047	201	1.6565684531768
9	10054	201.1	0.973
9	10061	201.2	1.6547282547677
9	10068	201.3	1.6547282547677
9	10075	201.4	1.6547282547677
9	10082	201.5	1.6547282547677
9	10089	201.6	1.6547282547677
9	10096	201.7	1.6547282547677
9	10103	201.8	1.6547282547677
9	10110	201.9	1.6547282547677
9	10117	202	1.6547282547677
9	10124	202.1	0.973
9	10131	202.2	1.648411201342
9	10138	202.3	1.648411201342
9	10145	202.4	1.648411201342
9	10152	202.5	1.648411201342
9	10159	202.6	1.648411201342
9	10166	202.7	1.648411201342
9	10173	202.8	1.648411201342
9	10180	202.9	1.648411201342
9	10187	203	1.648411201342
9	10194	203.1	6.5087726459206
9	10201	203.2	1.6636901588526
9	10208	203.3	1.6636901588526
9	10215	203.4	1.6636901588526
9	10222	203.5	1.6636901588526
9	10229	203.6	1.6636901588526
9	10236	203.7	1.6636901588526
9	10243	203.8	1.6636901588526
9	10250	203.9	1.6636901588526
9	10257	204	1.6636901588526
9	10264	204.1	5.3324606056124
9	10271	204.2	1.6751928008598
9	10278	204.3	1.6751928008598
9	10285	204.4	1.6751928008598
9	10292	204.5	1.6751928008598
9	10299	204.6	1.6751928008598
9	10306	204.7	1.6751928008598
9	10313	204.8	1.6751928008598
9	10320	204.9	1.6751928008598
9	10327	205	1.6751928008598
9	10334	205.1	0.973
9	10341	205.2	1.6431262462967
9	10348	205.3	1.6431262462967
9	10355	205.4	1.6431262462967
9	10362	205.5	1.6431262462967
9	10369	205.6	1.6431262462967
9	10376	205.7	1.6431262462967
9	10383	205.8	1.6431262462967
9	10390	205.9	1.6431262462967
9	10397	206	1.6431262462967
9	10404	206.1	0.973
9	10411	206.2	1.6319663015127
9	10418	206.3	1.6319663015127
9	10425	206.4	1.6319663015127
9	10432	206.5	1.6319663015127
9	10439	206.6	1.6319663015127
9	10446	206.7	1.6319663015127
9	10453	206.8	1.6319663015127
9	10460	206.9	1.6319663015127
9	10467	207	1.6319663015127
9	10474	207.1	0.973
9	10481	207.2	1.6278453776521
9	10488	207.3	1.6278453776521
9	10495	207.4	1.6278453776521
9	10502	207.5	1.6278453776521
9	10509	207.6	1.6278453776521
9	10516	207.7	1.6278453776521
9	10523	207.8	1.6278453776521
9	10530	207.9	1.6278453776521
9	10537	208	1.6278453776521
9	10544	208.1	0.973
9	10551	208.2	1.6164826532579
9	10558	208.3	1.6164826532579
9	10565	208.4	1.6164826532579
9	10572	208.5	1.6164826532579
9	10579	208.6	1.6164826532579
9	10586	208.7	1.6164826532579
9	10593	208.8	1.6164826532579
9	10600	208.9	1.6164826532579
9	10607	209	1.6164826532579
9	10614	209.1	0.973
9	10621	209.2	1.6046325500577
9	10628	209.3	1.6046325500577
9	10635	209.4	1.6046325500577
9	10642	209.5	1.6046325500577
9	10649	209.6	1.6046325500577
9	10656	209.7	1.6046325500577
9	10663	209.8	1.6046325500577
9	10670	209.9	1.6046325500577
9	10677	210	1.6046325500577
9	10684	210.1	8.6003016516572
9	10691	210.2	1.626919386595
9	10698	210.3	1.626919386595
9	10705	210.4	1.626919386595
9	10712	210.5	1.626919386595
9	10719	210.6	1.626919386595
9	10726	210.7	1.626919386595
9	10733	210.8	1.626919386595
9	10740	210.9	1.626919386595
9	10747	211	1.626919386595
9	10754	211.1	0.973
9	10761	211.2	1.6033848313931
9	10768	211.3	1.6033848313931
9	10775	211.4	1.6033848313931
9	10782	211.5	1.6033848313931
9	10789	211.6	1.6033848313931
9	10796	211.7	1.6033848313931
9	10803	211.8	1.6033848313931
9	10810	211.9	1.6033848313931
9	10817	212	1.6033848313931
9	10824	212.1	10.745815991392
9	10831	212.2	1.6323349636096
9	10838	212.3	1.6323349636096
9	10845	212.4	1.6323349636096
9	10852	212.5	1.6323349636096
9	10859	212.6	1.6323349636096
9	10866	212.7	1.6323349636096
9	10873	212.8	1.6323349636096
9	10880	212.9	1.6323349636096
9	10887	213	1.6323349636096
9	10894	213.1	0.973
9	10901	213.2	1.6043600695645
9	10908	213.3	1.6043600695645
9	10915	213.4	1.6043600695645
9	10922	213.5	1.6043600695645
9	10929	213.6	1.6043600695645
9	10936	213.7	1.6043600695645
9	10943	213.8	1.6043600695645
9	10950	213.9	1.6043600695645
9	10957	214	1.6043600695645
9	10964	214.1	14.184146593044
9	10971	214.2	1.6437725031301
9	10978	214.3	1.6437725031301
9	10985	214.4	1.6437725031301
9	10992	214.5	1.6437725031301
9	10999	214.6	1.6437725031301
9	11006	214.7	1.6437725031301
9	11013	214.8	1.6437725031301
9	11020	214.9	1.6437725031301
9	11027	215	1.6437725031301
9	11034	215.1	0.973
9	11041	215.2	1.6028549847285
9	11048	215.3	1.6028549847285
9	11055	215.4	1.6028549847285
9	11062	215.5	1.6028549847285
9	11069	215.6	1.6028549847285
9	11076	215.7	1.6028549847285
9	11083	215.8	1.6028549847285
9	11090	215.9	1.6028549847285
9	11097	216	1.6028549847285
9	11104	216.1	0.973
9	11111	216.2	1.5946303051963
9	11118	216.3	1.5946303051963
9	11125	216.4	1.5946303051963
9	11132	216.5	1.5946303051963
9	11139	216.6	1.5946303051963
9	11146	216.7	1.5946303051963
9	11153	216.8	1.5946303051963
9	11160	216.9	1.5946303051963
9	11167	217	1.5946303051963
9	11174	217.1	3.342076838568
9	11181	217.2	1.600328188707
9	11188	217.3	1.600328188707
9	11195	217.4	1.600328188707
9	11202	217.5	1.600328188707
9	11209	217.6	1.600328188707
9	11216	217.7	1.600328188707
9	11223	217.8	1.600328188707
9	11230	217.9	1.600328188707
9	11237	218	1.600328188707
9	11244	218.1	0.973
9	11251	218.2	1.5948231690405
9	11258	218.3	1.5948231690405
9	11265	218.4	1.5948231690405
9	11272	218.5	1.5948231690405
9	11279	218.6	1.5948231690405
9	11286	218.7	1.5948231690405
9	11293	218.8	1.5948231690405
9	11300	218.9	1.5948231690405
9	11307	219	1.5948231690405
9	11314	219.1	16.202492135595
9	11321	219.2	1.6405138259263
9	11328	219.3	1.6405138259263
9	11335	219.4	1.6405138259263
9	11342	219.5	1.6405138259263
9	11349	219.6	1.6405138259263
9	11356	219.7	1.6405138259263
9	11363	219.8	1.6405138259263
9	11370	219.9	1.6405138259263
9	11377	220	1.6405138259263
9	11384	220.1	0.973
9	11391	220.2	1.6349262350151
9	11398	220.3	1.6349262350151
9	11405	220.4	1.6349262350151
9	11412	220.5	1.6349262350151
9	11419	220.6	1.6349262350151
9	11426	220.7	1.6349262350151
9	11433	220.8	1.6349262350151
9	11440	220.9	1.6349262350151
9	11447	221	1.6349262350151
9	11454	221.1	0.973
9	11461	221.2	1.6207484030178
9	11468	221.3	1.6207484030178
9	11475	221.4	1.6207484030178
9	11482	221.5	1.6207484030178
9	11489	221.6	1.6207484030178
9	11496	221.7	1.6207484030178
9	11503	221.8	1.6207484030178
9	11510	221.9	1.6207484030178
9	11517	222	1.6207484030178
9	11524	222.1	0.973
9	11531	222.2	1.5953036418569
9	11538	222.3	1.5953036418569
9	11545	222.4	1.5953036418569
9	11552	222.5	1.5953036418569
9	11559	222.6	1.5953036418569
9	11566	222.7	1.5953036418569
9	11573	222.8	1.5953036418569
9	11580	222.9	1.5953036418569
9	11587	223	1.5953036418569
9	11594	223.1	24.965219804335
9	11601	223.2	1.6666721524782
9	11608	223.3	1.6666721524782
9	11615	223.4	1.6666721524782
9	11622	223.5	1.6666721524782
9	11629	223.6	1.6666721524782
9	11636	223.7	1.6666721524782
9	11643	223.8	1.6666721524782
9	11650	223.9	1.6666721524782
9	11657	224	1.6666721524782
9	11664	224.1	0.973
9	11671	224.2	1.611850798557
9	11678	224.3	1.611850798557
9	11685	224.4	1.611850798557
9	11692	224.5	1.611850798557
9	11699	224.6	1.611850798557
9	11706	224.7	1.611850798557
9	11713	224.8	1.611850798557
9	11720	224.9	1.611850798557
9	11727	225	1.611850798557
9	11734	225.1	0.973
9	11741	225.2	1.6103608861234
9	11748	225.3	1.6103608861234
9	11755	225.4	1.6103608861234
9	11762	225.5	1.6103608861234
9	11769	225.6	1.6103608861234
9	11776	225.7	1.6103608861234
9	11783	225.8	1.6103608861234
9	11790	225.9	1.6103608861234
9	11797	226	1.6103608861234
9	11804	226.1	16.725560031143
9	11811	226.2	1.6572641160255
9	11818	226.3	1.6572641160255
9	11825	226.4	1.6572641160255
9	11832	226.5	1.6572641160255
9	11839	226.6	1.6572641160255
9	11846	226.7	1.6572641160255
9	11853	226.8	1.6572641160255
9	11860	226.9	1.6572641160255
9	11867	227	1.6572641160255
9	11874	227.1	3.3183852631382
9	11881	227.2	1.6625141050239
9	11888	227.3	1.6625141050239
9	11895	227.4	1.6625141050239
9	11902	227.5	1.6625141050239
9	11909	227.6	1.6625141050239
9	11916	227.7	1.6625141050239
9	11923	227.8	1.6625141050239
9	11930	227.9	1.6625141050239
9	11937	228	1.6625141050239
9	11944	228.1	0.973
9	11951	228.2	1.6392481561577
9	11958	228.3	1.6392481561577
9	11965	228.4	1.6392481561577
9	11972	228.5	1.6392481561577
9	11979	228.6	1.6392481561577
9	11986	228.7	1.6392481561577
9	11993	228.8	1.6392481561577
9	12000	228.9	1.6392481561577
9	12007	229	1.6392481561577
9	12014	229.1	0.973
9	12021	229.2	1.6317802168554
9	12028	229.3	1.6317802168554
9	12035	229.4	1.6317802168554
9	12042	229.5	1.6317802168554
9	12049	229.6	1.6317802168554
9	12056	229.7	1.6317802168554
9	12063	229.8	1.6317802168554
9	12070	229.9	1.6317802168554
9	12077	230	1.6317802168554
9	12084	230.1	16.580219111102
9	12091	230.2	1.6778188777194
9	12098	230.3	1.6778188777194
9	12105	230.4	1.6778188777194
9	12112	230.5	1.6778188777194
9	12119	230.6	1.6778188777194
9	12126	230.7	1.6778188777194
9	12133	230.8	1.6778188777194
9	12140	230.9	1.6778188777194
9	12147	231	1.6778188777194
9	12154	231.1	0.973
9	12161	231.2	1.6171331635561
9	12168	231.3	1.6171331635561
9	12175	231.4	1.6171331635561
9	12182	231.5	1.6171331635561
9	12189	231.6	1.6171331635561
9	12196	231.7	1.6171331635561
9	12203	231.8	1.6171331635561
9	12210	231.9	1.6171331635561
9	12217	232	1.6171331635561
9	12224	232.1	0.973
9	12231	232.2	1.6050265930004
9	12238	232.3	1.6050265930004
9	12245	232.4	1.6050265930004
9	12252	232.5	1.6050265930004
9	12259	232.6	1.6050265930004
9	12266	232.7	1.6050265930004
9	12273	232.8	1.6050265930004
9	12280	232.9	1.6050265930004
9	12287	233	1.6050265930004
9	12294	233.1	18.207482327769
9	12301	233.2	1.6564463712258
9	12308	233.3	1.6564463712258
9	12315	233.4	1.6564463712258
9	12322	233.5	1.6564463712258
9	12329	233.6	1.6564463712258
9	12336	233.7	1.6564463712258
9	12343	233.8	1.6564463712258
9	12350	233.9	1.6564463712258
9	12357	234	1.6564463712258
9	12364	234.1	0.973
9	12371	234.2	1.6426023403047
9	12378	234.3	1.6426023403047
9	12385	234.4	1.6426023403047
9	12392	234.5	1.6426023403047
9	12399	234.6	1.6426023403047
9	12406	234.7	1.6426023403047
9	12413	234.8	1.6426023403047
9	12420	234.9	1.6426023403047
9	12427	235	1.6426023403047
9	12434	235.1	9.3386184518877
9	12441	235.2	1.6666630711467
9	12448	235.3	1.6666630711467
9	12455	235.4	1.6666630711467
9	12462	235.5	1.6666630711467
9	12469	235.6	1.6666630711467
9	12476	235.7	1.6666630711467
9	12483	235.8	1.6666630711467
9	12490	235.9	1.6666630711467
9	12497	236	1.6666630711467
9	12504	236.1	6.6517689152191
9	12511	236.2	1.6822220750365
9	12518	236.3	1.6822220750365
9	12525	236.4	1.6822220750365
9	12532	236.5	1.6822220750365
9	12539	236.6	1.6822220750365
9	12546	236.7	1.6822220750365
9	12553	236.8	1.6822220750365
9	12560	236.9	1.6822220750365
9	12567	237	1.6822220750365
9	12574	237.1	0.973
9	12581	237.2	1.5966989815212
9	12588	237.3	1.5966989815212
9	12595	237.4	1.5966989815212
9	12602	237.5	1.5966989815212
9	12609	237.6	1.5966989815212
9	12616	237.7	1.5966989815212
9	12623	237.8	1.5966989815212
9	12630	237.9	1.5966989815212
9	12637	238	1.5966989815212
9	12644	238.1	12.741217673087
9	12651	238.2	1.6318866859504
9	12658	238.3	1.6318866859504
9	12665	238.4	1.6318866859504
9	12672	238.5	1.6318866859504
9	12679	238.6	1.6318866859504
9	12686	238.7	1.6318866859504
9	12693	238.8	1.6318866859504
9	12700	238.9	1.6318866859504
9	12707	239	1.6318866859504
9	12714	239.1	0.973
9	12721	239.2	1.5952342046956
9	12728	239.3	1.5952342046956
9	12735	239.4	1.5952342046956
9	12742	239.5	1.5952342046956
9	12749	239.6	1.5952342046956
9	12756	239.7	1.5952342046956
9	12763	239.8	1.5952342046956
9	12770	239.9	1.5952342046956
9	12777	240	1.5952342046956
9	12784	240.1	16.787903173454
9	12791	240.2	1.6426660769929
9	12798	240.3	1.6426660769929
9	12805	240.4	1.6426660769929
9	12812	240.5	1.6426660769929
9	12819	240.6	1.6426660769929
9	12826	240.7	1.6426660769929
9	12833	240.8	1.6426660769929
9	12840	240.9	1.6426660769929
9	12847	241	1.6426660769929
9	12854	241.1	0.973
9	12861	241.2	1.6002073884442
9	12868	241.3	1.6002073884442
9	12875	241.4	1.6002073884442
9	12882	241.5	1.6002073884442
9	12889	241.6	1.6002073884442
9	12896	241.7	1.6002073884442
9	12903	241.8	1.6002073884442
9	12910	241.9	1.6002073884442
9	12917	242	1.6002073884442
9	12924	242.1	0.973
9	12931	242.2	1.5952572171965
9	12938	242.3	1.5952572171965
9	12945	242.4	1.5952572171965
9	12952	242.5	1.5952572171965
9	12959	242.6	1.5952572171965
9	12966	242.7	1.5952572171965
9	12973	242.8	1.5952572171965
9	12980	242.9	1.5952572171965
9	12987	243	1.5952572171965
9	12994	243.1	20.103781069735
9	13001	243.2	1.6525080303542
9	13008	243.3	1.6525080303542
9	13015	243.4	1.6525080303542
9	13022	243.5	1.6525080303542
9	13029	243.6	1.6525080303542
9	13036	243.7	1.6525080303542
9	13043	243.8	1.6525080303542
9	13050	243.9	1.6525080303542
9	13057	244	1.6525080303542
9	13064	244.1	5.3999896943369
9	13071	244.2	1.664305662429
9	13078	244.3	1.664305662429
9	13085	244.4	1.664305662429
9	13092	244.5	1.664305662429
9	13099	244.6	1.664305662429
9	13106	244.7	1.664305662429
9	13113	244.8	1.664305662429
9	13120	244.9	1.664305662429
9	13127	245	1.664305662429
9	13134	245.1	0.973
9	13141	245.2	1.6067372100142
9	13148	245.3	1.6067372100142
9	13155	245.4	1.6067372100142
9	13162	245.5	1.6067372100142
9	13169	245.6	1.6067372100142
9	13176	245.7	1.6067372100142
9	13183	245.8	1.6067372100142
9	13190	245.9	1.6067372100142
9	13197	246	1.6067372100142
9	13204	246.1	25.196363122985
9	13211	246.2	1.6784536784533
9	13218	246.3	1.6784536784533
9	13225	246.4	1.6784536784533
9	13232	246.5	1.6784536784533
9	13239	246.6	1.6784536784533
9	13246	246.7	1.6784536784533
9	13253	246.8	1.6784536784533
9	13260	246.9	1.6784536784533
9	13267	247	1.6784536784533
9	13274	247.1	2.3835804972126
9	13281	247.2	1.6806698932275
9	13288	247.3	1.6806698932275
9	13295	247.4	1.6806698932275
9	13302	247.5	1.6806698932275
9	13309	247.6	1.6806698932275
9	13316	247.7	1.6806698932275
9	13323	247.8	1.6806698932275
9	13330	247.9	1.6806698932275
9	13337	248	1.6806698932275
9	13344	248.1	0.973
9	13351	248.2	1.648865640959
9	13358	248.3	1.648865640959
9	13365	248.4	1.648865640959
9	13372	248.5	1.648865640959
9	13379	248.6	1.648865640959
9	13386	248.7	1.648865640959
9	13393	248.8	1.648865640959
9	13400	248.9	1.648865640959
9	13407	249	1.648865640959
9	13414	249.1	9.7817679446622
9	13421	249.2	1.6742029148802
9	13428	249.3	1.6742029148802
9	13435	249.4	1.6742029148802
9	13442	249.5	1.6742029148802
9	13449	249.6	1.6742029148802
9	13456	249.7	1.6742029148802
9	13463	249.8	1.6742029148802
9	13470	249.9	1.6742029148802
9	13477	250	1.6742029148802
9	13484	250.1	0.973
9	13491	250.2	1.5918678117394
9	13498	250.3	1.5918678117394
9	13505	250.4	1.5918678117394
9	13512	250.5	1.5918678117394
9	13519	250.6	1.5918678117394
9	13526	250.7	1.5918678117394
9	13533	250.8	1.5918678117394
9	13540	250.9	1.5918678117394
9	13547	251	1.5918678117394
9	13554	251.1	29.060735015287
9	13561	251.2	1.6750032117939
9	13568	251.3	1.6750032117939
9	13575	251.4	1.6750032117939
9	13582	251.5	1.6750032117939
9	13589	251.6	1.6750032117939
9	13596	251.7	1.6750032117939
9	13603	251.8	1.6750032117939
9	13610	251.9	1.6750032117939
9	13617	252	1.6750032117939
9	13624	252.1	0.973
9	13631	252.2	1.6263866770052
9	13638	252.3	1.6263866770052
9	13645	252.4	1.6263866770052
9	13652	252.5	1.6263866770052
9	13659	252.6	1.6263866770052
9	13666	252.7	1.6263866770052
9	13673	252.8	1.6263866770052
9	13680	252.9	1.6263866770052
9	13687	253	1.6263866770052
9	13694	253.1	3.9111857585637
9	13701	253.2	1.6336949698719
9	13708	253.3	1.6336949698719
9	13715	253.4	1.6336949698719
9	13722	253.5	1.6336949698719
9	13729	253.6	1.6336949698719
9	13736	253.7	1.6336949698719
9	13743	253.8	1.6336949698719
9	13750	253.9	1.6336949698719
9	13757	254	1.6336949698719
9	13764	254.1	0.973
9	13771	254.2	1.6250775378829
9	13778	254.3	1.6250775378829
9	13785	254.4	1.6250775378829
9	13792	254.5	1.6250775378829
9	13799	254.6	1.6250775378829
9	13806	254.7	1.6250775378829
9	13813	254.8	1.6250775378829
9	13820	254.9	1.6250775378829
9	13827	255	1.6250775378829
9	13834	255.1	0.973
9	13841	255.2	1.6128115938646
9	13848	255.3	1.6128115938646
9	13855	255.4	1.6128115938646
9	13862	255.5	1.6128115938646
9	13869	255.6	1.6128115938646
9	13876	255.7	1.6128115938646
9	13883	255.8	1.6128115938646
9	13890	255.9	1.6128115938646
9	13897	256	1.6128115938646
9	13904	256.1	12.503794032751
9	13911	256.2	1.6469730346056
9	13918	256.3	1.6469730346056
9	13925	256.4	1.6469730346056
9	13932	256.5	1.6469730346056
9	13939	256.6	1.6469730346056
9	13946	256.7	1.6469730346056
9	13953	256.8	1.6469730346056
9	13960	256.9	1.6469730346056
9	13967	257	1.6469730346056
9	13974	257.1	0.973
9	13981	257.2	1.6022753601042
9	13988	257.3	1.6022753601042
9	13995	257.4	1.6022753601042
9	14002	257.5	1.6022753601042
9	14009	257.6	1.6022753601042
9	14016	257.7	1.6022753601042
9	14023	257.8	1.6022753601042
9	14030	257.9	1.6022753601042
9	14037	258	1.6022753601042
9	14044	258.1	4.2135523751254
9	14051	258.2	1.6107260088048
9	14058	258.3	1.6107260088048
9	14065	258.4	1.6107260088048
9	14072	258.5	1.6107260088048
9	14079	258.6	1.6107260088048
9	14086	258.7	1.6107260088048
9	14093	258.8	1.6107260088048
9	14100	258.9	1.6107260088048
9	14107	259	1.6107260088048
9	14114	259.1	6.5424928467477
9	14121	259.2	1.6264922857751
9	14128	259.3	1.6264922857751
9	14135	259.4	1.6264922857751
9	14142	259.5	1.6264922857751
9	14149	259.6	1.6264922857751
9	14156	259.7	1.6264922857751
9	14163	259.8	1.6264922857751
9	14170	259.9	1.6264922857751
9	14177	260	1.6264922857751
9	14184	260.1	12.889648447965
9	14191	260.2	1.6615856728019
9	14198	260.3	1.6615856728019
9	14205	260.4	1.6615856728019
9	14212	260.5	1.6615856728019
9	14219	260.6	1.6615856728019
9	14226	260.7	1.6615856728019
9	14233	260.8	1.6615856728019
9	14240	260.9	1.6615856728019
9	14247	261	1.6615856728019
9	14254	261.1	0.973
9	14261	261.2	1.6032491715978
9	14268	261.3	1.6032491715978
9	14275	261.4	1.6032491715978
9	14282	261.5	1.6032491715978
9	14289	261.6	1.6032491715978
9	14296	261.7	1.6032491715978
9	14303	261.8	1.6032491715978
9	14310	261.9	1.6032491715978
9	14317	262	1.6032491715978
9	14324	262.1	2.5898555647864
9	14331	262.2	1.6064583573816
9	14338	262.3	1.6064583573816
9	14345	262.4	1.6064583573816
9	14352	262.5	1.6064583573816
9	14359	262.6	1.6064583573816
9	14366	262.7	1.6064583573816
9	14373	262.8	1.6064583573816
9	14380	262.9	1.6064583573816
9	14387	263	1.6064583573816
9	14394	263.1	22.243633052059
9	14401	263.2	1.6696674454281
9	14408	263.3	1.6696674454281
9	14415	263.4	1.6696674454281
9	14422	263.5	1.6696674454281
9	14429	263.6	1.6696674454281
9	14436	263.7	1.6696674454281
9	14443	263.8	1.6696674454281
9	14450	263.9	1.6696674454281
9	14457	264	1.6696674454281
9	14464	264.1	0.973
9	14471	264.2	1.6416335895162
9	14478	264.3	1.6416335895162
9	14485	264.4	1.6416335895162
9	14492	264.5	1.6416335895162
9	14499	264.6	1.6416335895162
9	14506	264.7	1.6416335895162
9	14513	264.8	1.6416335895162
9	14520	264.9	1.6416335895162
9	14527	265	1.6416335895162
9	14534	265.1	0.973
9	14541	265.2	1.6141893782076
9	14548	265.3	1.6141893782076
9	14555	265.4	1.6141893782076
9	14562	265.5	1.6141893782076
9	14569	265.6	1.6141893782076
9	14576	265.7	1.6141893782076
9	14583	265.8	1.6141893782076
9	14590	265.9	1.6141893782076
9	14597	266	1.6141893782076
9	14604	266.1	0.973
9	14611	266.2	1.6019783055693
9	14618	266.3	1.6019783055693
9	14625	266.4	1.6019783055693
9	14632	266.5	1.6019783055693
9	14639	266.6	1.6019783055693
9	14646	266.7	1.6019783055693
9	14653	266.8	1.6019783055693
9	14660	266.9	1.6019783055693
9	14667	267	1.6019783055693
9	14674	267.1	20.118384988971
9	14681	267.2	1.6591002491764
9	14688	267.3	1.6591002491764
9	14695	267.4	1.6591002491764
9	14702	267.5	1.6591002491764
9	14709	267.6	1.6591002491764
9	14716	267.7	1.6591002491764
9	14723	267.8	1.6591002491764
9	14730	267.9	1.6591002491764
9	14737	268	1.6591002491764
9	14744	268.1	7.1556841503836
9	14751	268.2	1.6762792397607
9	14758	268.3	1.6762792397607
9	14765	268.4	1.6762792397607
9	14772	268.5	1.6762792397607
9	14779	268.6	1.6762792397607
9	14786	268.7	1.6762792397607
9	14793	268.8	1.6762792397607
9	14800	268.9	1.6762792397607
9	14807	269	1.6762792397607
9	14814	269.1	0.973
9	14821	269.2	1.6333809755202
9	14828	269.3	1.6333809755202
9	14835	269.4	1.6333809755202
9	14842	269.5	1.6333809755202
9	14849	269.6	1.6333809755202
9	14856	269.7	1.6333809755202
9	14863	269.8	1.6333809755202
9	14870	269.9	1.6333809755202
9	14877	270	1.6333809755202
9	14884	270.1	0.973
9	14891	270.2	1.6157060493756
9	14898	270.3	1.6157060493756
9	14905	270.4	1.6157060493756
9	14912	270.5	1.6157060493756
9	14919	270.6	1.6157060493756
9	14926	270.7	1.6157060493756
9	14933	270.8	1.6157060493756
9	14940	270.9	1.6157060493756
9	14947	271	1.6157060493756
9	14954	271.1	23.855062170716
9	14961	271.2	1.6833407459461
9	14968	271.3	1.6833407459461
9	14975	271.4	1.6833407459461
9	14982	271.5	1.6833407459461
9	14989	271.6	1.6833407459461
9	14996	271.7	1.6833407459461
9	15003	271.8	1.6833407459461
9	15010	271.9	1.6833407459461
9	15017	272	1.6833407459461
9	15024	272.1	0.973
9	15031	272.2	1.6507393120821
9	15038	272.3	1.6507393120821
9	15045	272.4	1.6507393120821
9	15052	272.5	1.6507393120821
9	15059	272.6	1.6507393120821
9	15066	272.7	1.6507393120821
9	15073	272.8	1.6507393120821
9	15080	272.9	1.6507393120821
9	15087	273	1.6507393120821
9	15094	273.1	0.973
9	15101	273.2	1.5978580387806
9	15108	273.3	1.5978580387806
9	15115	273.4	1.5978580387806
9	15122	273.5	1.5978580387806
9	15129	273.6	1.5978580387806
9	15136	273.7	1.5978580387806
9	15143	273.8	1.5978580387806
9	15150	273.9	1.5978580387806
9	15157	274	1.5978580387806
9	15164	274.1	2.09829005852
9	15171	274.2	1.5994939527545
9	15178	274.3	1.5994939527545
9	15185	274.4	1.5994939527545
9	15192	274.5	1.5994939527545
9	15199	274.6	1.5994939527545
9	15206	274.7	1.5994939527545
9	15213	274.8	1.5994939527545
9	15220	274.9	1.5994939527545
9	15227	275	1.5994939527545
9	15234	275.1	28.735729293893
9	15241	275.2	1.6814840798895
9	15248	275.3	1.6814840798895
9	15255	275.4	1.6814840798895
9	15262	275.5	1.6814840798895
9	15269	275.6	1.6814840798895
9	15276	275.7	1.6814840798895
9	15283	275.8	1.6814840798895
9	15290	275.9	1.6814840798895
9	15297	276	1.6814840798895
9	15304	276.1	0.973
9	15311	276.2	1.5944010978096
9	15318	276.3	1.5944010978096
9	15325	276.4	1.5944010978096
9	15332	276.5	1.5944010978096
9	15339	276.6	1.5944010978096
9	15346	276.7	1.5944010978096
9	15353	276.8	1.5944010978096
9	15360	276.9	1.5944010978096
9	15367	277	1.5944010978096
9	15374	277.1	26.895669567596
9	15381	277.2	1.6713185150942
9	15388	277.3	1.6713185150942
9	15395	277.4	1.6713185150942
9	15402	277.5	1.6713185150942
9	15409	277.6	1.6713185150942
9	15416	277.7	1.6713185150942
9	15423	277.8	1.6713185150942
9	15430	277.9	1.6713185150942
9	15437	278	1.6713185150942
9	15444	278.1	0.973
9	15451	278.2	1.6201086247164
9	15458	278.3	1.6201086247164
9	15465	278.4	1.6201086247164
9	15472	278.5	1.6201086247164
9	15479	278.6	1.6201086247164
9	15486	278.7	1.6201086247164
9	15493	278.8	1.6201086247164
9	15500	278.9	1.6201086247164
9	15507	279	1.6201086247164
9	15514	279.1	6.5209471075686
9	15521	279.2	1.635705159654
9	15528	279.3	1.635705159654
9	15535	279.4	1.635705159654
9	15542	279.5	1.635705159654
9	15549	279.6	1.635705159654
9	15556	279.7	1.635705159654
9	15563	279.8	1.635705159654
9	15570	279.9	1.635705159654
9	15577	280	1.635705159654
9	15584	280.1	0.973
9	15591	280.2	1.6142086087871
9	15598	280.3	1.6142086087871
9	15605	280.4	1.6142086087871
9	15612	280.5	1.6142086087871
9	15619	280.6	1.6142086087871
9	15626	280.7	1.6142086087871
9	15633	280.8	1.6142086087871
9	15640	280.9	1.6142086087871
9	15647	281	1.6142086087871
9	15654	281.1	0.973
9	15661	281.2	1.60985604276
9	15668	281.3	1.60985604276
9	15675	281.4	1.60985604276
9	15682	281.5	1.60985604276
9	15689	281.6	1.60985604276
9	15696	281.7	1.60985604276
9	15703	281.8	1.60985604276
9	15710	281.9	1.60985604276
9	15717	282	1.60985604276
9	15724	282.1	0.973
9	15731	282.2	1.5908387399351
9	15738	282.3	1.5908387399351
9	15745	282.4	1.5908387399351
9	15752	282.5	1.5908387399351
9	15759	282.6	1.5908387399351
9	15766	282.7	1.5908387399351
9	15773	282.8	1.5908387399351
9	15780	282.9	1.5908387399351
9	15787	283	1.5908387399351
9	15794	283.1	16.997296475725
9	15801	283.2	1.639002077881
9	15808	283.3	1.639002077881
9	15815	283.4	1.639002077881
9	15822	283.5	1.639002077881
9	15829	283.6	1.639002077881
9	15836	283.7	1.639002077881
9	15843	283.8	1.639002077881
9	15850	283.9	1.639002077881
9	15857	284	1.639002077881
9	15864	284.1	6.3916844427374
9	15871	284.2	1.6540051433285
9	15878	284.3	1.6540051433285
9	15885	284.4	1.6540051433285
9	15892	284.5	1.6540051433285
9	15899	284.6	1.6540051433285
9	15906	284.7	1.6540051433285
9	15913	284.8	1.6540051433285
9	15920	284.9	1.6540051433285
9	15927	285	1.6540051433285
9	15934	285.1	0.973
9	15941	285.2	1.625431315791
9	15948	285.3	1.625431315791
9	15955	285.4	1.625431315791
9	15962	285.5	1.625431315791
9	15969	285.6	1.625431315791
9	15976	285.7	1.625431315791
9	15983	285.8	1.625431315791
9	15990	285.9	1.625431315791
9	15997	286	1.625431315791
9	16004	286.1	16.509845307124
9	16011	286.2	1.671383307156
9	16018	286.3	1.671383307156
9	16025	286.4	1.671383307156
9	16032	286.5	1.671383307156
9	16039	286.6	1.671383307156
9	16046	286.7	1.671383307156
9	16053	286.8	1.671383307156
9	16060	286.9	1.671383307156
9	16067	287	1.671383307156
9	16074	287.1	0.973
9	16081	287.2	1.6580112004227
9	16088	287.3	1.6580112004227
9	16095	287.4	1.6580112004227
9	16102	287.5	1.6580112004227
9	16109	287.6	1.6580112004227
9	16116	287.7	1.6580112004227
9	16123	287.8	1.6580112004227
9	16130	287.9	1.6580112004227
9	16137	288	1.6580112004227
9	16144	288.1	0.973
9	16151	288.2	1.6475438489408
9	16158	288.3	1.6475438489408
9	16165	288.4	1.6475438489408
9	16172	288.5	1.6475438489408
9	16179	288.6	1.6475438489408
9	16186	288.7	1.6475438489408
9	16193	288.8	1.6475438489408
9	16200	288.9	1.6475438489408
9	16207	289	1.6475438489408
9	16214	289.1	6.4019272838774
9	16221	289.2	1.6624992502029
9	16228	289.3	1.6624992502029
9	16235	289.4	1.6624992502029
9	16242	289.5	1.6624992502029
9	16249	289.6	1.6624992502029
9	16256	289.7	1.6624992502029
9	16263	289.8	1.6624992502029
9	16270	289.9	1.6624992502029
9	16277	290	1.6624992502029
9	16284	290.1	6.4465232814826
9	16291	290.2	1.67746077695
9	16298	290.3	1.67746077695
9	16305	290.4	1.67746077695
9	16312	290.5	1.67746077695
9	16319	290.6	1.67746077695
9	16326	290.7	1.67746077695
9	16333	290.8	1.67746077695
9	16340	290.9	1.67746077695
9	16347	291	1.67746077695
9	16354	291.1	0.973
9	16361	291.2	1.6712286196735
9	16368	291.3	1.6712286196735
9	16375	291.4	1.6712286196735
9	16382	291.5	1.6712286196735
9	16389	291.6	1.6712286196735
9	16396	291.7	1.6712286196735
9	16403	291.8	1.6712286196735
9	16410	291.9	1.6712286196735
9	16417	292	1.6712286196735
9	16424	292.1	0.973
9	16431	292.2	1.6596240840764
9	16438	292.3	1.6596240840764
9	16445	292.4	1.6596240840764
9	16452	292.5	1.6596240840764
9	16459	292.6	1.6596240840764
9	16466	292.7	1.6596240840764
9	16473	292.8	1.6596240840764
9	16480	292.9	1.6596240840764
9	16487	293	1.6596240840764
9	16494	293.1	0.973
9	16501	293.2	1.6570228139841
9	16508	293.3	1.6570228139841
9	16515	293.4	1.6570228139841
9	16522	293.5	1.6570228139841
9	16529	293.6	1.6570228139841
9	16536	293.7	1.6570228139841
9	16543	293.8	1.6570228139841
9	16550	293.9	1.6570228139841
9	16557	294	1.6570228139841
9	16564	294.1	0.973
9	16571	294.2	1.6511195208769
9	16578	294.3	1.6511195208769
9	16585	294.4	1.6511195208769
9	16592	294.5	1.6511195208769
9	16599	294.6	1.6511195208769
9	16606	294.7	1.6511195208769
9	16613	294.8	1.6511195208769
9	16620	294.9	1.6511195208769
9	16627	295	1.6511195208769
9	16634	295.1	10.156738205407
9	16641	295.2	1.6775706170438
9	16648	295.3	1.6775706170438
9	16655	295.4	1.6775706170438
9	16662	295.5	1.6775706170438
9	16669	295.6	1.6775706170438
9	16676	295.7	1.6775706170438
9	16683	295.8	1.6775706170438
9	16690	295.9	1.6775706170438
9	16697	296	1.6775706170438
9	16704	296.1	0.973
9	16711	296.2	1.5932151855928
9	16718	296.3	1.5932151855928
9	16725	296.4	1.5932151855928
9	16732	296.5	1.5932151855928
9	16739	296.6	1.5932151855928
9	16746	296.7	1.5932151855928
9	16753	296.8	1.5932151855928
9	16760	296.9	1.5932151855928
9	16767	297	1.5932151855928
9	16774	297.1	7.4496013068192
9	16781	297.2	1.6120551309021
9	16788	297.3	1.6120551309021
9	16795	297.4	1.6120551309021
9	16802	297.5	1.6120551309021
9	16809	297.6	1.6120551309021
9	16816	297.7	1.6120551309021
9	16823	297.8	1.6120551309021
9	16830	297.9	1.6120551309021
9	16837	298	1.6120551309021
9	16844	298.1	9.6440820460072
9	16851	298.2	1.6374704034349
9	16858	298.3	1.6374704034349
9	16865	298.4	1.6374704034349
9	16872	298.5	1.6374704034349
9	16879	298.6	1.6374704034349
9	16886	298.7	1.6374704034349
9	16893	298.8	1.6374704034349
9	16900	298.9	1.6374704034349
9	16907	299	1.6374704034349
9	16914	299.1	0.973
9	16921	299.2	1.6233006134505
9	16928	299.3	1.6233006134505
9	16935	299.4	1.6233006134505
9	16942	299.5	1.6233006134505
9	16949	299.6	1.6233006134505
9	16956	299.7	1.6233006134505
9	16963	299.8	1.6233006134505
9	16970	299.9	1.6233006134505
9	16977	300	1.6233006134505
9	16984	300.1	9.1907587027719
9	16991	300.2	1.6471569946768
9	16998	300.3	1.6471569946768
9	17005	300.4	1.6471569946768
9	17012	300.5	1.6471569946768
9	17019	300.6	1.6471569946768
9	17026	300.7	1.6471569946768
9	17033	300.8	1.6471569946768
9	17040	300.9	1.6471569946768
9	17047	301	1.6471569946768
9	17054	301.1	0.973
9	17061	301.2	1.6158521928958
9	17068	301.3	1.6158521928958
9	17075	301.4	1.6158521928958
9	17082	301.5	1.6158521928958
9	17089	301.6	1.6158521928958
9	17096	301.7	1.6158521928958
9	17103	301.8	1.6158521928958
9	17110	301.9	1.6158521928958
9	17117	302	1.6158521928958
9	17124	302.1	12.004867091027
9	17131	302.2	1.6484432324464
9	17138	302.3	1.6484432324464
9	17145	302.4	1.6484432324464
9	17152	302.5	1.6484432324464
9	17159	302.6	1.6484432324464
9	17166	302.7	1.6484432324464
9	17173	302.8	1.6484432324464
9	17180	302.9	1.6484432324464
9	17187	303	1.6484432324464
9	17194	303.1	0.973
9	17201	303.2	1.6089975017633
9	17208	303.3	1.6089975017633
9	17215	303.4	1.6089975017633
9	17222	303.5	1.6089975017633
9	17229	303.6	1.6089975017633
9	17236	303.7	1.6089975017633
9	17243	303.8	1.6089975017633
9	17250	303.9	1.6089975017633
9	17257	304	1.6089975017633
9	17264	304.1	0.973
9	17271	304.2	1.594964487714
9	17278	304.3	1.594964487714
9	17285	304.4	1.594964487714
9	17292	304.5	1.594964487714
9	17299	304.6	1.594964487714
9	17306	304.7	1.594964487714
9	17313	304.8	1.594964487714
9	17320	304.9	1.594964487714
9	17327	305	1.594964487714
9	17334	305.1	25.132447007024
9	17341	305.2	1.6668229153883
9	17348	305.3	1.6668229153883
9	17355	305.4	1.6668229153883
9	17362	305.5	1.6668229153883
9	17369	305.6	1.6668229153883
9	17376	305.7	1.6668229153883
9	17383	305.8	1.6668229153883
9	17390	305.9	1.6668229153883
9	17397	306	1.6668229153883
9	17404	306.1	0.973
9	17411	306.2	1.6149319183021
9	17418	306.3	1.6149319183021
9	17425	306.4	1.6149319183021
9	17432	306.5	1.6149319183021
9	17439	306.6	1.6149319183021
9	17446	306.7	1.6149319183021
9	17453	306.8	1.6149319183021
9	17460	306.9	1.6149319183021
9	17467	307	1.6149319183021
9	17474	307.1	0.973
9	17481	307.2	1.610543427187
9	17488	307.3	1.610543427187
9	17495	307.4	1.610543427187
9	17502	307.5	1.610543427187
9	17509	307.6	1.610543427187
9	17516	307.7	1.610543427187
9	17523	307.8	1.610543427187
9	17530	307.9	1.610543427187
9	17537	308	1.610543427187
9	17544	308.1	6.8576438265421
9	17551	308.2	1.6273025056345
9	17558	308.3	1.6273025056345
9	17565	308.4	1.6273025056345
9	17572	308.5	1.6273025056345
9	17579	308.6	1.6273025056345
9	17586	308.7	1.6273025056345
9	17593	308.8	1.6273025056345
9	17600	308.9	1.6273025056345
9	17607	309	1.6273025056345
9	17614	309.1	0.973
9	17621	309.2	1.6044138416746
9	17628	309.3	1.6044138416746
9	17635	309.4	1.6044138416746
9	17642	309.5	1.6044138416746
9	17649	309.6	1.6044138416746
9	17656	309.7	1.6044138416746
9	17663	309.8	1.6044138416746
9	17670	309.9	1.6044138416746
9	17677	310	1.6044138416746
9	17684	310.1	3.37804572853
9	17691	310.2	1.6101632962963
9	17698	310.3	1.6101632962963
9	17705	310.4	1.6101632962963
9	17712	310.5	1.6101632962963
9	17719	310.6	1.6101632962963
9	17726	310.7	1.6101632962963
9	17733	310.8	1.6101632962963
9	17740	310.9	1.6101632962963
9	17747	311	1.6101632962963
9	17754	311.1	17.579868536543
9	17761	311.2	1.6596077834672
9	17768	311.3	1.6596077834672
9	17775	311.4	1.6596077834672
9	17782	311.5	1.6596077834672
9	17789	311.6	1.6596077834672
9	17796	311.7	1.6596077834672
9	17803	311.8	1.6596077834672
9	17810	311.9	1.6596077834672
9	17817	312	1.6596077834672
9	17824	312.1	0.973
9	17831	312.2	1.6239311840642
9	17838	312.3	1.6239311840642
9	17845	312.4	1.6239311840642
9	17852	312.5	1.6239311840642
9	17859	312.6	1.6239311840642
9	17866	312.7	1.6239311840642
9	17873	312.8	1.6239311840642
9	17880	312.9	1.6239311840642
9	17887	313	1.6239311840642
9	17894	313.1	0.973
9	17901	313.2	1.619347062175
9	17908	313.3	1.619347062175
9	17915	313.4	1.619347062175
9	17922	313.5	1.619347062175
9	17929	313.6	1.619347062175
9	17936	313.7	1.619347062175
9	17943	313.8	1.619347062175
9	17950	313.9	1.619347062175
9	17957	314	1.619347062175
9	17964	314.1	14.853074577712
9	17971	314.2	1.660475778246
9	17978	314.3	1.660475778246
9	17985	314.4	1.660475778246
9	17992	314.5	1.660475778246
9	17999	314.6	1.660475778246
9	18006	314.7	1.660475778246
9	18013	314.8	1.660475778246
9	18020	314.9	1.660475778246
9	18027	315	1.660475778246
9	18034	315.1	0.973
9	18041	315.2	1.6481787642786
9	18048	315.3	1.6481787642786
9	18055	315.4	1.6481787642786
9	18062	315.5	1.6481787642786
9	18069	315.6	1.6481787642786
9	18076	315.7	1.6481787642786
9	18083	315.8	1.6481787642786
9	18090	315.9	1.6481787642786
9	18097	316	1.6481787642786
9	18104	316.1	0.973
9	18111	316.2	1.6152067577067
9	18118	316.3	1.6152067577067
9	18125	316.4	1.6152067577067
9	18132	316.5	1.6152067577067
9	18139	316.6	1.6152067577067
9	18146	316.7	1.6152067577067
9	18153	316.8	1.6152067577067
9	18160	316.9	1.6152067577067
9	18167	317	1.6152067577067
9	18174	317.1	18.767801868471
9	18181	317.2	1.6680475065122
9	18188	317.3	1.6680475065122
9	18195	317.4	1.6680475065122
9	18202	317.5	1.6680475065122
9	18209	317.6	1.6680475065122
9	18216	317.7	1.6680475065122
9	18223	317.8	1.6680475065122
9	18230	317.9	1.6680475065122
9	18237	318	1.6680475065122
9	18244	318.1	6.280836980313
9	18251	318.2	1.6824513426351
9	18258	318.3	1.6824513426351
9	18265	318.4	1.6824513426351
9	18272	318.5	1.6824513426351
9	18279	318.6	1.6824513426351
9	18286	318.7	1.6824513426351
9	18293	318.8	1.6824513426351
9	18300	318.9	1.6824513426351
9	18307	319	1.6824513426351
9	18314	319.1	0.973
9	18321	319.2	1.6453833979377
9	18328	319.3	1.6453833979377
9	18335	319.4	1.6453833979377
9	18342	319.5	1.6453833979377
9	18349	319.6	1.6453833979377
9	18356	319.7	1.6453833979377
9	18363	319.8	1.6453833979377
9	18370	319.9	1.6453833979377
9	18377	320	1.6453833979377
9	18384	320.1	0.973
9	18391	320.2	1.6422016634155
9	18398	320.3	1.6422016634155
9	18405	320.4	1.6422016634155
9	18412	320.5	1.6422016634155
9	18419	320.6	1.6422016634155
9	18426	320.7	1.6422016634155
9	18433	320.8	1.6422016634155
9	18440	320.9	1.6422016634155
9	18447	321	1.6422016634155
9	18454	321.1	11.026722230601
9	18461	321.2	1.6714135489991
9	18468	321.3	1.6714135489991
9	18475	321.4	1.6714135489991
9	18482	321.5	1.6714135489991
9	18489	321.6	1.6714135489991
9	18496	321.7	1.6714135489991
9	18503	321.8	1.6714135489991
9	18510	321.9	1.6714135489991
9	18517	322	1.6714135489991
9	18524	322.1	0.973
9	18531	322.2	1.6295594948216
9	18538	322.3	1.6295594948216
9	18545	322.4	1.6295594948216
9	18552	322.5	1.6295594948216
9	18559	322.6	1.6295594948216
9	18566	322.7	1.6295594948216
9	18573	322.8	1.6295594948216
9	18580	322.9	1.6295594948216
9	18587	323	1.6295594948216
9	18594	323.1	10.921927715601
9	18601	323.2	1.658633725932
9	18608	323.3	1.658633725932
9	18615	323.4	1.658633725932
9	18622	323.5	1.658633725932
9	18629	323.6	1.658633725932
9	18636	323.7	1.658633725932
9	18643	323.8	1.658633725932
9	18650	323.9	1.658633725932
9	18657	324	1.658633725932
9	18664	324.1	0.973
9	18671	324.2	1.6314907155469
9	18678	324.3	1.6314907155469
9	18685	324.4	1.6314907155469
9	18692	324.5	1.6314907155469
9	18699	324.6	1.6314907155469
9	18706	324.7	1.6314907155469
9	18713	324.8	1.6314907155469
9	18720	324.9	1.6314907155469
9	18727	325	1.6314907155469
9	18734	325.1	0.973
9	18741	325.2	1.5914817778191
9	18748	325.3	1.5914817778191
9	18755	325.4	1.5914817778191
9	18762	325.5	1.5914817778191
9	18769	325.6	1.5914817778191
9	18776	325.7	1.5914817778191
9	18783	325.8	1.5914817778191
9	18790	325.9	1.5914817778191
9	18797	326	1.5914817778191
9	18804	326.1	29.888237419385
9	18811	326.2	1.676962510899
9	18818	326.3	1.676962510899
9	18825	326.4	1.676962510899
9	18832	326.5	1.676962510899
9	18839	326.6	1.676962510899
9	18846	326.7	1.676962510899
9	18853	326.8	1.676962510899
9	18860	326.9	1.676962510899
9	18867	327	1.676962510899
9	18874	327.1	0.973
9	18881	327.2	1.6664397098345
9	18888	327.3	1.6664397098345
9	18895	327.4	1.6664397098345
9	18902	327.5	1.6664397098345
9	18909	327.6	1.6664397098345
9	18916	327.7	1.6664397098345
9	18923	327.8	1.6664397098345
9	18930	327.9	1.6664397098345
9	18937	328	1.6664397098345
9	18944	328.1	2.3612778255488
9	18951	328.2	1.6686336018276
9	18958	328.3	1.6686336018276
9	18965	328.4	1.6686336018276
9	18972	328.5	1.6686336018276
9	18979	328.6	1.6686336018276
9	18986	328.7	1.6686336018276
9	18993	328.8	1.6686336018276
9	19000	328.9	1.6686336018276
9	19007	329	1.6686336018276
9	19014	329.1	4.0916167250873
9	19021	329.2	1.6762416904323
9	19028	329.3	1.6762416904323
9	19035	329.4	1.6762416904323
9	19042	329.5	1.6762416904323
9	19049	329.6	1.6762416904323
9	19056	329.7	1.6762416904323
9	19063	329.8	1.6762416904323
9	19070	329.9	1.6762416904323
9	19077	330	1.6762416904323
9	19084	330.1	0.973
9	19091	330.2	1.6153405790041
9	19098	330.3	1.6153405790041
9	19105	330.4	1.6153405790041
9	19112	330.5	1.6153405790041
9	19119	330.6	1.6153405790041
9	19126	330.7	1.6153405790041
9	19133	330.8	1.6153405790041
9	19140	330.9	1.6153405790041
9	19147	331	1.6153405790041
9	19154	331.1	0.973
9	19161	331.2	1.5997247188584
9	19168	331.3	1.5997247188584
9	19175	331.4	1.5997247188584
9	19182	331.5	1.5997247188584
9	19189	331.6	1.5997247188584
9	19196	331.7	1.5997247188584
9	19203	331.8	1.5997247188584
9	19210	331.9	1.5997247188584
9	19217	332	1.5997247188584
9	19224	332.1	25.570562610777
9	19231	332.2	1.6727043875999
9	19238	332.3	1.6727043875999
9	19245	332.4	1.6727043875999
9	19252	332.5	1.6727043875999
9	19259	332.6	1.6727043875999
9	19266	332.7	1.6727043875999
9	19273	332.8	1.6727043875999
9	19280	332.9	1.6727043875999
9	19287	333	1.6727043875999
9	19294	333.1	0.973
9	19301	333.2	1.6491252561289
9	19308	333.3	1.6491252561289
9	19315	333.4	1.6491252561289
9	19322	333.5	1.6491252561289
9	19329	333.6	1.6491252561289
9	19336	333.7	1.6491252561289
9	19343	333.8	1.6491252561289
9	19350	333.9	1.6491252561289
9	19357	334	1.6491252561289
9	19364	334.1	12.72622146472
9	19371	334.2	1.6833714568869
9	19378	334.3	1.6833714568869
9	19385	334.4	1.6833714568869
9	19392	334.5	1.6833714568869
9	19399	334.6	1.6833714568869
9	19406	334.7	1.6833714568869
9	19413	334.8	1.6833714568869
9	19420	334.9	1.6833714568869
9	19427	335	1.6833714568869
9	19434	335.1	0.973
9	19441	335.2	1.6350369475651
9	19448	335.3	1.6350369475651
9	19455	335.4	1.6350369475651
9	19462	335.5	1.6350369475651
9	19469	335.6	1.6350369475651
9	19476	335.7	1.6350369475651
9	19483	335.8	1.6350369475651
9	19490	335.9	1.6350369475651
9	19497	336	1.6350369475651
9	19504	336.1	0.973
9	19511	336.2	1.6024626634705
9	19518	336.3	1.6024626634705
9	19525	336.4	1.6024626634705
9	19532	336.5	1.6024626634705
9	19539	336.6	1.6024626634705
9	19546	336.7	1.6024626634705
9	19553	336.8	1.6024626634705
9	19560	336.9	1.6024626634705
9	19567	337	1.6024626634705
9	19574	337.1	16.458619683976
9	19581	337.2	1.6487443447037
9	19588	337.3	1.6487443447037
9	19595	337.4	1.6487443447037
9	19602	337.5	1.6487443447037
9	19609	337.6	1.6487443447037
9	19616	337.7	1.6487443447037
9	19623	337.8	1.6487443447037
9	19630	337.9	1.6487443447037
9	19637	338	1.6487443447037
9	19644	338.1	2.5674209046514
9	19651	338.2	1.6516645850117
9	19658	338.3	1.6516645850117
9	19665	338.4	1.6516645850117
9	19672	338.5	1.6516645850117
9	19679	338.6	1.6516645850117
9	19686	338.7	1.6516645850117
9	19693	338.8	1.6516645850117
9	19700	338.9	1.6516645850117
9	19707	339	1.6516645850117
9	19714	339.1	0.973
9	19721	339.2	1.6291752807602
9	19728	339.3	1.6291752807602
9	19735	339.4	1.6291752807602
9	19742	339.5	1.6291752807602
9	19749	339.6	1.6291752807602
9	19756	339.7	1.6291752807602
9	19763	339.8	1.6291752807602
9	19770	339.9	1.6291752807602
9	19777	340	1.6291752807602
9	19784	340.1	0.973
9	19791	340.2	1.599320605137
9	19798	340.3	1.599320605137
9	19805	340.4	1.599320605137
9	19812	340.5	1.599320605137
9	19819	340.6	1.599320605137
9	19826	340.7	1.599320605137
9	19833	340.8	1.599320605137
9	19840	340.9	1.599320605137
9	19847	341	1.599320605137
9	19854	341.1	3.2440227899335
9	19861	341.2	1.6046703591336
9	19868	341.3	1.6046703591336
9	19875	341.4	1.6046703591336
9	19882	341.5	1.6046703591336
9	19889	341.6	1.6046703591336
9	19896	341.7	1.6046703591336
9	19903	341.8	1.6046703591336
9	19910	341.9	1.6046703591336
9	19917	342	1.6046703591336
9	19924	342.1	0.973
9	19931	342.2	1.5912730295288
9	19938	342.3	1.5912730295288
9	19945	342.4	1.5912730295288
[...]
10	20337	348	2162.1968584732
10	20344	348.1	2171.1922738616
10	20351	348.2	2171.1922738616
10	20358	348.3	2171.1922738616
10	20365	348.4	2171.1922738616
10	20372	348.5	2171.1922738616
10	20379	348.6	2171.1922738616
10	20386	348.7	2171.1922738616
10	20393	348.8	2171.1922738616
10	20400	348.9	2171.1922738616
10	20407	349	2171.1922738616
10	20414	349.1	2179.7823990103
10	20421	349.2	2179.7823990103
10	20428	349.3	2179.7823990103
10	20435	349.4	2179.7823990103
10	20442	349.5	2179.7823990103
10	20449	349.6	2179.7823990103
10	20456	349.7	2179.7823990103
10	20463	349.8	2179.7823990103
10	20470	349.9	2179.7823990103
10	20477	350	2179.7823990103
10	20484	350.1	2188.739022695
10	20491	350.2	2188.739022695
10	20498	350.3	2188.739022695
10	20505	350.4	2188.739022695
10	20512	350.5	2188.739022695
10	20519	350.6	2188.739022695
10	20526	350.7	2188.739022695
10	20533	350.8	2188.739022695
10	20540	350.9	2188.739022695
10	20547	351	2188.739022695
10	20554	351.1	2198.5808670509
10	20561	351.2	2198.5808670509
10	20568	351.3	2198.5808670509
10	20575	351.4	2198.5808670509
10	20582	351.5	2198.5808670509
10	20589	351.6	2198.5808670509
10	20596	351.7	2198.5808670509
10	20603	351.8	2198.5808670509
10	20610	351.9	2198.5808670509
10	20617	352	2198.5808670509
10	20624	352.1	2207.513816095
10	20631	352.2	2207.513816095
10	20638	352.3	2207.513816095
10	20645	352.4	2207.513816095
10	20652	352.5	2207.513816095
10	20659	352.6	2207.513816095
10	20666	352.7	2207.513816095
10	20673	352.8	2207.513816095
10	20680	352.9	2207.513816095
10	20687	353	2207.513816095
10	20694	353.1	2217.3471231562
10	20701	353.2	2217.3471231562
10	20708	353.3	2217.3471231562
10	20715	353.4	2217.3471231562
10	20722	353.5	2217.3471231562
10	20729	353.6	2217.3471231562
10	20736	353.7	2217.3471231562
10	20743	353.8	2217.3471231562
10	20750	353.9	2217.3471231562
10	20757	354	2217.3471231562
10	20764	354.1	2226.6461246877
10	20771	354.2	2226.6461246877
10	20778	354.3	2226.6461246877
10	20785	354.4	2226.6461246877
10	20792	354.5	2226.6461246877
10	20799	354.6	2226.6461246877
10	20806	354.7	2226.6461246877
10	20813	354.8	2226.6461246877
10	20820	354.9	2226.6461246877
10	20827	355	2226.6461246877
10	20834	355.1	2235.4985391187
10	20841	355.2	2235.4985391187
10	20848	355.3	2235.4985391187
10	20855	355.4	2235.4985391187
10	20862	355.5	2235.4985391187
10	20869	355.6	2235.4985391187
10	20876	355.7	2235.4985391187
10	20883	355.8	2235.4985391187
10	20890	355.9	2235.4985391187
10	20897	356	2235.4985391187
10	20904	356.1	2244.5946250676
10	20911	356.2	2244.5946250676
10	20918	356.3	2244.5946250676
10	20925	356.4	2244.5946250676
10	20932	356.5	2244.5946250676
10	20939	356.6	2244.5946250676
10	20946	356.7	2244.5946250676
10	20953	356.8	2244.5946250676
10	20960	356.9	2244.5946250676
10	20967	357	2244.5946250676
10	20974	357.1	2253.7246488342
10	20981	357.2	2253.7246488342
10	20988	357.3	2253.7246488342
10	20995	357.4	2253.7246488342
10	21002	357.5	2253.7246488342
10	21009	357.6	2253.7246488342
10	21016	357.7	2253.7246488342
10	21023	357.8	2253.7246488342
10	21030	357.9	2253.7246488342
10	21037	358	2253.7246488342
10	21044	358.1	2262.4248617355
10	21051	358.2	2262.4248617355
10	21058	358.3	2262.4248617355
10	21065	358.4	2262.4248617355
10	21072	358.5	2262.4248617355
10	21079	358.6	2262.4248617355
10	21086	358.7	2262.4248617355
10	21093	358.8	2262.4248617355
10	21100	358.9	2262.4248617355
10	21107	359	2262.4248617355
10	21114	359.1	2271.5353809192
10	21121	359.2	2271.5353809192
10	21128	359.3	2271.5353809192
10	21135	359.4	2271.5353809192
10	21142	359.5	2271.5353809192
10	21149	359.6	2271.5353809192
10	21156	359.7	2271.5353809192
10	21163	359.8	2271.5353809192
10	21170	359.9	2271.5353809192
10	21177	360	2271.5353809192
10	21184	360.1	2280.3730265138
10	21191	360.2	2280.3730265138
10	21198	360.3	2280.3730265138
10	21205	360.4	2280.3730265138
10	21212	360.5	2280.3730265138
10	21219	360.6	2280.3730265138
10	21226	360.7	2280.3730265138
10	21233	360.8	2280.3730265138
10	21240	360.9	2280.3730265138
10	21247	361	2280.3730265138
10	21254	361.1	2289.469753282
10	21261	361.2	2289.469753282
10	21268	361.3	2289.469753282
10	21275	361.4	2289.469753282
10	21282	361.5	2289.469753282
10	21289	361.6	2289.469753282
10	21296	361.7	2289.469753282
10	21303	361.8	2289.469753282
10	21310	361.9	2289.469753282
10	21317	362	2289.469753282
10	21324	362.1	2298.4507672059
10	21331	362.2	2298.4507672059
10	21338	362.3	2298.4507672059
10	21345	362.4	2298.4507672059
10	21352	362.5	2298.4507672059
10	21359	362.6	2298.4507672059
10	21366	362.7	2298.4507672059
10	21373	362.8	2298.4507672059
10	21380	362.9	2298.4507672059
10	21387	363	2298.4507672059
10	21394	363.1	2307.7730994849
10	21401	363.2	2307.7730994849
10	21408	363.3	2307.7730994849
10	21415	363.4	2307.7730994849
10	21422	363.5	2307.7730994849
10	21429	363.6	2307.7730994849
10	21436	363.7	2307.7730994849
10	21443	363.8	2307.7730994849
10	21450	363.9	2307.7730994849
10	21457	364	2307.7730994849
10	21464	364.1	2317.3390391242
10	21471	364.2	2317.3390391242
10	21478	364.3	2317.3390391242
10	21485	364.4	2317.3390391242
10	21492	364.5	2317.3390391242
10	21499	364.6	2317.3390391242
10	21506	364.7	2317.3390391242
10	21513	364.8	2317.3390391242
10	21520	364.9	2317.3390391242
10	21527	365	2317.3390391242
10	21534	365.1	2326.8318594114
10	21541	365.2	2326.8318594114
10	21548	365.3	2326.8318594114
10	21555	365.4	2326.8318594114
10	21562	365.5	2326.8318594114
10	21569	365.6	2326.8318594114
10	21576	365.7	2326.8318594114
10	21583	365.8	2326.8318594114
10	21590	365.9	2326.8318594114
10	21597	366	2326.8318594114
10	21604	366.1	2336.3067808373
10	21611	366.2	2336.3067808373
10	21618	366.3	2336.3067808373
10	21625	366.4	2336.3067808373
10	21632	366.5	2336.3067808373
10	21639	366.6	2336.3067808373
10	21646	366.7	2336.3067808373
10	21653	366.8	2336.3067808373
10	21660	366.9	2336.3067808373
10	21667	367	2336.3067808373
10	21674	367.1	2345.7273150532
10	21681	367.2	2345.7273150532
10	21688	367.3	2345.7273150532
10	21695	367.4	2345.7273150532
10	21702	367.5	2345.7273150532
10	21709	367.6	2345.7273150532
10	21716	367.7	2345.7273150532
10	21723	367.8	2345.7273150532
10	21730	367.9	2345.7273150532
10	21737	368	2345.7273150532
10	21744	368.1	2355.3580585423
10	21751	368.2	2355.3580585423
10	21758	368.3	2355.3580585423
10	21765	368.4	2355.3580585423
10	21772	368.5	2355.3580585423
10	21779	368.6	2355.3580585423
10	21786	368.7	2355.3580585423
10	21793	368.8	2355.3580585423
10	21800	368.9	2355.3580585423
10	21807	369	2355.3580585423
10	21814	369.1	2365.039779273
10	21821	369.2	2365.039779273
10	21828	369.3	2365.039779273
10	21835	369.4	2365.039779273
10	21842	369.5	2365.039779273
10	21849	369.6	2365.039779273
10	21856	369.7	2365.039779273
10	21863	369.8	2365.039779273
10	21870	369.9	2365.039779273
10	21877	370	2365.039779273
10	21884	370.1	2374.4519404513
10	21891	370.2	2374.4519404513
10	21898	370.3	2374.4519404513
10	21905	370.4	2374.4519404513
10	21912	370.5	2374.4519404513
10	21919	370.6	2374.4519404513
10	21926	370.7	2374.4519404513
10	21933	370.8	2374.4519404513
10	21940	370.9	2374.4519404513
10	21947	371	2374.4519404513
10	21954	371.1	2384.1119922558
10	21961	371.2	2384.1119922558
10	21968	371.3	2384.1119922558
10	21975	371.4	2384.1119922558
10	21982	371.5	2384.1119922558
10	21989	371.6	2384.1119922558
10	21996	371.7	2384.1119922558
10	22003	371.8	2384.1119922558
10	22010	371.9	2384.1119922558
10	22017	372	2384.1119922558
10	22024	372.1	2394.0484251573
10	22031	372.2	2394.0484251573
10	22038	372.3	2394.0484251573
10	22045	372.4	2394.0484251573
10	22052	372.5	2394.0484251573
10	22059	372.6	2394.0484251573
10	22066	372.7	2394.0484251573
10	22073	372.8	2394.0484251573
10	22080	372.9	2394.0484251573
10	22087	373	2394.0484251573
10	22094	373.1	2403.9967984505
10	22101	373.2	2403.9967984505
10	22108	373.3	2403.9967984505
10	22115	373.4	2403.9967984505
10	22122	373.5	2403.9967984505
10	22129	373.6	2403.9967984505
10	22136	373.7	2403.9967984505
10	22143	373.8	2403.9967984505
10	22150	373.9	2403.9967984505
10	22157	374	2403.9967984505
10	22164	374.1	2413.7512326461
10	22171	374.2	2413.7512326461
10	22178	374.3	2413.7512326461
10	22185	374.4	2413.7512326461
10	22192	374.5	2413.7512326461
10	22199	374.6	2413.7512326461
10	22206	374.7	2413.7512326461
10	22213	374.8	2413.7512326461
10	22220	374.9	2413.7512326461
10	22227	375	2413.7512326461
10	22234	375.1	2423.6400334138
10	22241	375.2	2423.6400334138
10	22248	375.3	2423.6400334138
10	22255	375.4	2423.6400334138
10	22262	375.5	2423.6400334138
10	22269	375.6	2423.6400334138
10	22276	375.7	2423.6400334138
10	22283	375.8	2423.6400334138
10	22290	375.9	2423.6400334138
10	22297	376	2423.6400334138
10	22304	376.1	2432.5172981207
10	22311	376.2	2432.5172981207
10	22318	376.3	2432.5172981207
10	22325	376.4	2432.5172981207
10	22332	376.5	2432.5172981207
10	22339	376.6	2432.5172981207
10	22346	376.7	2432.5172981207
10	22353	376.8	2432.5172981207
10	22360	376.9	2432.5172981207
10	22367	377	2432.5172981207
10	22374	377.1	2441.5896613241
10	22381	377.2	2441.5896613241
10	22388	377.3	2441.5896613241
10	22395	377.4	2441.5896613241
10	22402	377.5	2441.5896613241
10	22409	377.6	2441.5896613241
10	22416	377.7	2441.5896613241
10	22423	377.8	2441.5896613241
10	22430	377.9	2441.5896613241
10	22437	378	2441.5896613241
10	22444	378.1	2450.9212538732
10	22451	378.2	2450.9212538732
10	22458	378.3	2450.9212538732
10	22465	378.4	2450.9212538732
10	22472	378.5	2450.9212538732
10	22479	378.6	2450.9212538732
10	22486	378.7	2450.9212538732
10	22493	378.8	2450.9212538732
10	22500	378.9	2450.9212538732
10	22507	379	2450.9212538732
10	22514	379.1	2460.1898619434
10	22521	379.2	2460.1898619434
10	22528	379.3	2460.1898619434
10	22535	379.4	2460.1898619434
10	22542	379.5	2460.1898619434
10	22549	379.6	2460.1898619434
10	22556	379.7	2460.1898619434
10	22563	379.8	2460.1898619434
10	22570	379.9	2460.1898619434
10	22577	380	2460.1898619434
10	22584	380.1	2469.6731549914
10	22591	380.2	2469.6731549914
10	22598	380.3	2469.6731549914
10	22605	380.4	2469.6731549914
10	22612	380.5	2469.6731549914
10	22619	380.6	2469.6731549914
10	22626	380.7	2469.6731549914
10	22633	380.8	2469.6731549914
10	22640	380.9	2469.6731549914
10	22647	381	2469.6731549914
10	22654	381.1	2479.3985061645
10	22661	381.2	2479.3985061645
10	22668	381.3	2479.3985061645
10	22675	381.4	2479.3985061645
10	22682	381.5	2479.3985061645
10	22689	381.6	2479.3985061645
10	22696	381.7	2479.3985061645
10	22703	381.8	2479.3985061645
10	22710	381.9	2479.3985061645
10	22717	382	2479.3985061645
10	22724	382.1	2488.4380836313
10	22731	382.2	2488.4380836313
10	22738	382.3	2488.4380836313
10	22745	382.4	2488.4380836313
10	22752	382.5	2488.4380836313
10	22759	382.6	2488.4380836313
10	22766	382.7	2488.4380836313
10	22773	382.8	2488.4380836313
10	22780	382.9	2488.4380836313
10	22787	383	2488.4380836313
10	22794	383.1	2497.8388852597
10	22801	383.2	2497.8388852597
10	22808	383.3	2497.8388852597
10	22815	383.4	2497.8388852597
10	22822	383.5	2497.8388852597
10	22829	383.6	2497.8388852597
10	22836	383.7	2497.8388852597
10	22843	383.8	2497.8388852597
10	22850	383.9	2497.8388852597
10	22857	384	2497.8388852597
10	22864	384.1	2507.6800027115
10	22871	384.2	2507.6800027115
10	22878	384.3	2507.6800027115
10	22885	384.4	2507.6800027115
10	22892	384.5	2507.6800027115
10	22899	384.6	2507.6800027115
10	22906	384.7	2507.6800027115
10	22913	384.8	2507.6800027115
10	22920	384.9	2507.6800027115
10	22927	385	2507.6800027115
10	22934	385.1	2516.4673744552
10	22941	385.2	2516.4673744552
10	22948	385.3	2516.4673744552
10	22955	385.4	2516.4673744552
10	22962	385.5	2516.4673744552
10	22969	385.6	2516.4673744552
10	22976	385.7	2516.4673744552
10	22983	385.8	2516.4673744552
10	22990	385.9	2516.4673744552
10	22997	386	2516.4673744552
10	23004	386.1	2526.431115101
10	23011	386.2	2526.431115101
10	23018	386.3	2526.431115101
10	23025	386.4	2526.431115101
10	23032	386.5	2526.431115101
10	23039	386.6	2526.431115101
10	23046	386.7	2526.431115101
10	23053	386.8	2526.431115101
10	23060	386.9	2526.431115101
10	23067	387	2526.431115101
10	23074	387.1	2536.1829756265
10	23081	387.2	2536.1829756265
10	23088	387.3	2536.1829756265
10	23095	387.4	2536.1829756265
10	23102	387.5	2536.1829756265
10	23109	387.6	2536.1829756265
10	23116	387.7	2536.1829756265
10	23123	387.8	2536.1829756265
10	23130	387.9	2536.1829756265
10	23137	388	2536.1829756265
10	23144	388.1	2545.121854017
10	23151	388.2	2545.121854017
10	23158	388.3	2545.121854017
10	23165	388.4	2545.121854017
10	23172	388.5	2545.121854017
10	23179	388.6	2545.121854017
10	23186	388.7	2545.121854017
10	23193	388.8	2545.121854017
10	23200	388.9	2545.121854017
10	23207	389	2545.121854017
10	23214	389.1	2554.5569890743
10	23221	389.2	2554.5569890743
10	23228	389.3	2554.5569890743
10	23235	389.4	2554.5569890743
10	23242	389.5	2554.5569890743
10	23249	389.6	2554.5569890743
10	23256	389.7	2554.5569890743
10	23263	389.8	2554.5569890743
10	23270	389.9	2554.5569890743
10	23277	390	2554.5569890743
10	23284	390.1	2564.3350167548
10	23291	390.2	2564.3350167548
10	23298	390.3	2564.3350167548
10	23305	390.4	2564.3350167548
10	23312	390.5	2564.3350167548
10	23319	390.6	2564.3350167548
10	23326	390.7	2564.3350167548
10	23333	390.8	2564.3350167548
10	23340	390.9	2564.3350167548
10	23347	391	2564.3350167548
10	23354	391.1	2573.6915529091
10	23361	391.2	2573.6915529091
10	23368	391.3	2573.6915529091
10	23375	391.4	2573.6915529091
10	23382	391.5	2573.6915529091
10	23389	391.6	2573.6915529091
10	23396	391.7	2573.6915529091
10	23403	391.8	2573.6915529091
10	23410	391.9	2573.6915529091
10	23417	392	2573.6915529091
10	23424	392.1	2582.8730109607
10	23431	392.2	2582.8730109607
10	23438	392.3	2582.8730109607
10	23445	392.4	2582.8730109607
10	23452	392.5	2582.8730109607
10	23459	392.6	2582.8730109607
10	23466	392.7	2582.8730109607
10	23473	392.8	2582.8730109607
10	23480	392.9	2582.8730109607
10	23487	393	2582.8730109607
10	23494	393.1	2592.661851087
10	23501	393.2	2592.661851087
10	23508	393.3	2592.661851087
10	23515	393.4	2592.661851087
10	23522	393.5	2592.661851087
10	23529	393.6	2592.661851087
10	23536	393.7	2592.661851087
10	23543	393.8	2592.661851087
10	23550	393.9	2592.661851087
10	23557	394	2592.661851087
10	23564	394.1	2601.5920141967
10	23571	394.2	2601.5920141967
10	23578	394.3	2601.5920141967
10	23585	394.4	2601.5920141967
10	23592	394.5	2601.5920141967
10	23599	394.6	2601.5920141967
10	23606	394.7	2601.5920141967
10	23613	394.8	2601.5920141967
10	23620	394.9	2601.5920141967
10	23627	395	2601.5920141967
10	23634	395.1	2610.9101330126
10	23641	395.2	2610.9101330126
10	23648	395.3	2610.9101330126
10	23655	395.4	2610.9101330126
10	23662	395.5	2610.9101330126
10	23669	395.6	2610.9101330126
10	23676	395.7	2610.9101330126
10	23683	395.8	2610.9101330126
10	23690	395.9	2610.9101330126
10	23697	396	2610.9101330126
10	23704	396.1	2620.2986198412
10	23711	396.2	2620.2986198412
10	23718	396.3	2620.2986198412
10	23725	396.4	2620.2986198412
10	23732	396.5	2620.2986198412
10	23739	396.6	2620.2986198412
10	23746	396.7	2620.2986198412
10	23753	396.8	2620.2986198412
10	23760	396.9	2620.2986198412
10	23767	397	2620.2986198412
10	23774	397.1	2630.2459531661
10	23781	397.2	2630.2459531661
10	23788	397.3	2630.2459531661
10	23795	397.4	2630.2459531661
10	23802	397.5	2630.2459531661
10	23809	397.6	2630.2459531661
10	23816	397.7	2630.2459531661
10	23823	397.8	2630.2459531661
10	23830	397.9	2630.2459531661
10	23837	398	2630.2459531661
10	23844	398.1	2639.8524015344
10	23851	398.2	2639.8524015344
10	23858	398.3	2639.8524015344
10	23865	398.4	2639.8524015344
10	23872	398.5	2639.8524015344
10	23879	398.6	2639.8524015344
10	23886	398.7	2639.8524015344
10	23893	398.8	2639.8524015344
10	23900	398.9	2639.8524015344
10	23907	399	2639.8524015344
10	23914	399.1	2648.8093145444
10	23921	399.2	2648.8093145444
10	23928	399.3	2648.8093145444
10	23935	399.4	2648.8093145444
10	23942	399.5	2648.8093145444
10	23949	399.6	2648.8093145444
10	23956	399.7	2648.8093145444
10	23963	399.8	2648.8093145444
10	23970	399.9	2648.8093145444
10	23977	400	2648.8093145444
10	23984	400.1	2657.5293630298
10	23991	400.2	2657.5293630298
10	23998	400.3	2657.5293630298
10	24005	400.4	2657.5293630298
10	24012	400.5	2657.5293630298
10	24019	400.6	2657.5293630298
10	24026	400.7	2657.5293630298
10	24033	400.8	2657.5293630298
10	24040	400.9	2657.5293630298
10	24047	401	2657.5293630298
10	24054	401.1	2666.4427110266
10	24059	401.2	2666.4427110266
10	24064	401.3	2666.4427110266
10	24069	401.4	2666.4427110266
10	24074	401.5	2666.4427110266
10	24079	401.6	2666.4427110266
10	24084	401.7	2666.4427110266
10	24089	401.8	2666.4427110266
10	24094	401.9	2666.4427110266
10	24099	402	2666.4427110266
10	24104	402.1	2675.4334340813
10	24109	402.2	2675.4334340813
10	24114	402.3	2675.4334340813
10	24119	402.4	2675.4334340813
10	24124	402.5	2675.4334340813
10	24129	402.6	2675.4334340813
10	24134	402.7	2675.4334340813
10	24139	402.8	2675.4334340813
10	24144	402.9	2675.4334340813
10	24149	403	2675.4334340813
10	24154	403.1	2683.9215948238
10	24159	403.2	2683.9215948238
10	24164	403.3	2683.9215948238
10	24169	403.4	2683.9215948238
10	24174	403.5	2683.9215948238
10	24179	403.6	2683.9215948238
10	24184	403.7	2683.9215948238
10	24189	403.8	2683.9215948238
10	24194	403.9	2683.9215948238
10	24199	404	2683.9215948238
10	24204	404.1	2692.3781318679
10	24209	404.2	2692.3781318679
10	24214	404.3	2692.3781318679
10	24219	404.4	2692.3781318679
10	24224	404.5	2692.3781318679
10	24229	404.6	2692.3781318679
10	24234	404.7	2692.3781318679
10	24239	404.8	2692.3781318679
10	24244	404.9	2692.3781318679
10	24249	405	2692.3781318679
10	24254	405.1	2700.601155239
10	24259	405.2	2700.601155239
10	24264	405.3	2700.601155239
10	24269	405.4	2700.601155239
10	24274	405.5	2700.601155239
10	24279	405.6	2700.601155239
10	24284	405.7	2700.601155239
10	24289	405.8	2700.601155239
10	24294	405.9	2700.601155239
10	24299	406	2700.601155239
10	24304	406.1	2708.5944714885
10	24309	406.2	2708.5944714885
10	24314	406.3	2708.5944714885
10	24319	406.4	2708.5944714885
10	24324	406.5	2708.5944714885
10	24329	406.6	2708.5944714885
10	24334	406.7	2708.5944714885
10	24339	406.8	2708.5944714885
10	24344	406.9	2708.5944714885
10	24349	407	2708.5944714885
10	24354	407.1	2717.2936244815
10	24359	407.2	2717.2936244815
10	24364	407.3	2717.2936244815
10	24369	407.4	2717.2936244815
10	24374	407.5	2717.2936244815
10	24379	407.6	2717.2936244815
10	24384	407.7	2717.2936244815
10	24389	407.8	2717.2936244815
10	24394	407.9	2717.2936244815
10	24399	408	2717.2936244815
10	24404	408.1	2725.8689393345
10	24409	408.2	2725.8689393345
10	24414	408.3	2725.8689393345
10	24419	408.4	2725.8689393345
10	24424	408.5	2725.8689393345
10	24429	408.6	2725.8689393345
10	24434	408.7	2725.8689393345
10	24439	408.8	2725.8689393345
10	24444	408.9	2725.8689393345
10	24449	409	2725.8689393345
10	24454	409.1	2734.1836723793
10	24459	409.2	2734.1836723793
10	24464	409.3	2734.1836723793
10	24469	409.4	2734.1836723793
10	24474	409.5	2734.1836723793
10	24479	409.6	2734.1836723793
10	24484	409.7	2734.1836723793
10	24489	409.8	2734.1836723793
10	24494	409.9	2734.1836723793
10	24499	410	2734.1836723793
10	24504	410.1	2742.4654960206
10	24509	410.2	2742.4654960206
10	24514	410.3	2742.4654960206
10	24519	410.4	2742.4654960206
10	24524	410.5	2742.4654960206
10	24529	410.6	2742.4654960206
10	24534	410.7	2742.4654960206
10	24539	410.8	2742.4654960206
10	24544	410.9	2742.4654960206
10	24549	411	2742.4654960206
10	24554	411.1	2750.6074015498
10	24557	411.2	2750.6074015498
10	24560	411.3	2750.6074015498
10	24563	411.4	2750.6074015498
10	24566	411.5	2750.6074015498
10	24569	411.6	2750.6074015498
10	24572	411.7	2750.6074015498
10	24575	411.8	2750.6074015498
10	24578	411.9	2750.6074015498
10	24581	412	2750.6074015498
10	24584	412.1	2759.2193191175
10	24587	412.2	2759.2193191175
10	24590	412.3	2759.2193191175
10	24593	412.4	2759.2193191175
10	24596	412.5	2759.2193191175
10	24599	412.6	2759.2193191175
10	24602	412.7	2759.2193191175
10	24605	412.8	2759.2193191175
10	24608	412.9	2759.2193191175
10	24611	413	2759.2193191175

